# total energy = -381167.26030176977 ev
CRYSTAL
PRIMVEC
9.28499377396956 0.00000000000000 0.00000000000000
0.00000000000000 9.28499377396956 0.00000000000000
0.00000000000000 0.00000000000000 13.58952692975657
PRIMCOORD
 96 1
Ni 9.335596784560382 4.528198513961165 0.46485691705975374 -1.1081017537604787 2.2310277170179833 0.5315727503823813
Ni 9.08705607668917 1.871966123555411 5.559719517073331 1.079852271996482 0.1723202189653871 0.2022352613572646
Ni 0.3586802300932379 6.1279193410621575 10.388717468213525 -0.9644133395991714 -0.4516186411552416 1.230839790922364
Ni 9.328168789704698 3.9116656559457548 3.1403222431455893 0.5802822997729425 -0.3539380611826163 -2.3737974760197633
Ni 7.045137430835689 5.295408247624142 10.338205246196154 2.436159068976121 0.8154852743054795 1.0296633098469168
Ni 1.2732140282257964 1.7167767410330157 3.4139881436161574 0.5171863997537222 1.7937049236601237 -0.297350651705875
Ni 0.20875265342673846 6.276637083066537 3.7282731054556812 -0.043336972224738264 -0.28282648994777093 0.2170533002067036
Ni 4.786479180086896 8.48417215922108 7.92318306123841 -1.360053408506264 0.5151765684125451 -0.15913868727810657
Ni 5.9658869182789624 6.75310581308444 9.066225193615757 -1.3424475224990429 1.2465703142837432 0.059540321457478104
Ni 0.8510495115990914 0.3907496693833002 12.934633921519431 0.3006424350832693 2.6434984843291693 0.8085628361540332
Ni 3.558418075590093 2.3440801915891685 4.450909298988408 0.8958463891630507 -0.6379482870258433 2.234993900754583
Ni 4.44534851633957 6.878007546582781 0.01307419944536225 1.713506816742978 0.9722893999131385 0.3461435048388619
Ni 1.52012057722876 3.1857555736803858 1.0390242064157653 0.9620049872679948 -1.4054701460781664 1.1194092083534979
Ni 3.027817833061387 5.959303857838112 12.255198017568011 -0.846523888778839 -1.3363439807044661 -1.4346405969945355
Ni 8.982005659442645 1.6919950931957373 8.00651402152691 -0.46401778615054284 0.11411687115177765 0.3808060892180538
Ni 5.433494671991323 1.5864340013028864 11.91999860771295 0.4465214291379923 0.8174619384158761 0.2513903829256767
Ni 8.055613996022343 7.426045007035206 11.97908644979121 0.5205794845956712 -0.41920242960806514 -0.5841533526925746
Ni 1.7067396629842717 9.102227756181904 4.498717730878309 -0.2972971727601203 -1.1447541148761897 0.04909984285044447
Ni 8.190877782344364 7.81790887564686 2.511195219852366 0.6801457463294996 -1.3393341736810418 0.74974808000867
Ni 3.9119256357657037 8.699101190370321 12.221006957247294 -2.365178366892185 0.08349117584612072 -1.550610205084336
Ni 8.897688632837054 6.319487328390269 6.535597410721563 0.20578029839604559 -0.086125013924542 -2.179514893850672
Ni 6.579197883525719 9.268317721155018 2.0019820315118904 -0.994380575385223 1.1701098200321591 -0.8524029732674352
Ni 8.78110625357708 3.973197308331534 7.154042977412312 -0.14490428884627948 -0.7618191522405913 -0.35424607934133834
Ni 2.2515552306680444 8.680289793398298 6.6761536433782585 0.9366888771007095 -0.5992632117508195 0.9836781013660543
P 8.296708139050734 7.893321593419199 5.03400875215838 0.43069757473185827 0.056820094312837625 -0.1958671530473917
Ni 1.7502677128385846 6.737107769164009 5.353199904600084 1.1052884526813995 -0.4300406578741497 0.6148968045230184
P 3.6425401173307237 3.8646928734771175 11.147352510314969 0.14612273463441286 0.4329701728161189 1.652455200847296
Ni 2.46329950902291 4.798085422048904 3.351992241551898 0.35600805633776755 -0.14016343172718443 0.11622620418529661
P 4.546944915978199 5.696306414979022 4.249241095655278 -0.2068766167840179 -0.730065256867762 -0.5356980854046645
P 2.9267042530883773 9.293164363947284 10.30246452044867 2.1248918071891536 1.5276839353054656 1.9609333299249
P 4.948409467940825 0.46047811409232753 5.549895065377331 -0.7152603306444455 0.7747967954471817 0.8936432108641449
Ni 8.63307560109685 2.551989767599787 12.66579250370763 0.38250558840766385 -0.9541839485616793 1.2244071479231429
Ni 7.080866086091533 5.88980568096961 5.136216104373889 -0.4308130172638 1.9447968293743538 -0.5212315163573734
Ni 6.321075062290671 -0.6162858771864584 4.352168034872432 1.1652046694210578 0.6171691454969629 0.1435125507050754
Ni 1.6197949831984808 3.001467021310845 7.273794324977592 0.4278724465782373 1.191004918313613 1.3843590751311643
Ni 6.99419995611283 5.232093876472998 7.664887539122968 -0.7630962191808018 -1.259967818636572 -0.051055423914918525
Ni 3.102357761438184 7.181403996463227 3.057616162924324 -0.38661703947287607 -0.1933253604621445 -0.3098719241013373
Ni 3.819669939658098 3.3308800231733278 0.3923244042927054 -0.3745349114973614 1.0789027635990194 -3.443704720988392
Ni 1.3737055136296425 4.211032418616993 11.518075377067987 3.256663393762746 -0.3258299900924905 2.044341973359544
Ni 6.837367129728614 3.73336592442861 1.1263365719469127 1.5100022017549866 0.7033160137983758 -0.20026168257066157
Ni 3.505168637468403 2.6874949637546175 2.353107990836897 -1.5803190450026783 -0.4973128007582468 0.43913747796909536
Ni 5.569250562972532 3.72582650965009 10.181749390550863 -1.7099283553631002 -1.0401390125672603 -0.4949707828886314
Ni 3.54082301277569 1.4373355745621526 7.4111843748270525 0.11454007473212532 -2.6416421478467216 -1.761133931702638
Ni 5.592063792173055 9.010946984399109 10.33400564360462 -1.4622971823695396 -1.176921957857986 0.4707101105690539
Ni 6.94116407284324 6.873030790029472 0.6734062291273178 -0.7936733206367106 0.3474537390098532 1.0000701695708325
Ni 8.286745340950546 0.6288076195144292 3.6426858917297666 0.3340518637816505 -0.11508540571263405 0.5889654293692373
Ni 7.211561655577308 0.17151240121776257 8.816260167730965 0.6094902887954665 -0.4208841881858622 -0.29235139871907073
Ni 6.027641410510412 8.663335395140198 12.735724289775831 1.2854245681467797 -0.8716389386789117 0.7017669241437011
Ni 0.941554057919469 4.269695007989763 5.2302285212648645 0.3985965804322555 0.33714515799499356 0.4816200726133383
Ni 5.148352519468721 1.6088944007477632 9.063466622026228 1.1385001635466778 -0.1651884930166123 0.22544769491798594
Ni 2.2436072761724617 5.423188329129059 0.8949833156723961 0.3074769415065995 0.29794869030119014 0.4186054194540145
Ni 8.169475872166423 6.895630464377892 8.575929251173998 0.6220933222714577 1.4601230575363564 2.2195837368471
Ni 4.3815606105163765 9.09856946871548 0.9418669622027648 -0.5673637919390616 0.29542232433491056 -0.058845095162666394
Ni 6.908100210741873 1.180410517497584 6.537676320781798 -0.41804800428864775 0.23899380903353679 0.14875682982315025
Ni 0.961683923978375 5.799731958350863 8.18056865398403 1.678739588465122 -0.5044175301238281 -0.4268818005301938
Ni 8.307534441552894 8.873139109839016 0.3638064750430174 0.7453301534466326 -1.402275807510585 0.8569481694359565
P 5.662666883276338 6.375754389422081 11.774889942709077 0.316183725251978 0.975787642874384 -0.6174247131511947
Ni 6.667702442231204 7.842551248580594 6.720360426262511 0.7011724850928118 -0.19346214315032487 -0.057591682371539527
P 7.25296344190418 2.4750078859141835 2.960912954896877 0.38723076179747506 -0.13589154382470792 0.3532042683403852
Ni 0.5571023996744326 3.8083701024838876 9.449518084663307 -0.6841618094674282 -0.8591446628666429 -1.400750372004994
P 2.063450545941396 1.6677426899919263 5.817757844866896 -0.9709704239913987 -1.7323704864167004 -1.6716664836684243
P 2.2505710213496664 1.2406608407707576 0.8406317488139933 1.1040802913059116 -1.451186674278675 0.23669241459386975
P 7.1597885314331835 1.173530337262506 13.472792148813797 -2.311117580492039 2.181294354348598 0.28548835305065023
Ni 1.8009266377543551 0.6500043313344828 8.651120057600023 -1.8897693081855649 0.14224936772193567 -0.4024316379076295
Ni 4.346676889675367 7.671020277375692 5.177460045810079 -0.9423733290799965 -0.10085100728080695 0.7267616464158259
Ni 3.7253065500101923 0.3322857788729188 3.0859911032730394 0.11947864968432327 -0.32257163105619285 0.7116294187600777
Ni 5.755869648728043 4.1358518256838925 5.511327987587259 -0.980100411317125 -1.1343740571934464 1.2712876145247654
Ni 4.327131978211346 3.344333978855687 7.6125675288575945 1.9727958856904408 2.222241486184921 1.05053989618561
Ni 2.891783392273089 2.4074595576952995 9.772147470223835 0.4094720896941787 -1.5811811358926575 0.0441152451516595
Ni 0.813842685366966 1.5701388375882277 10.719391372202757 -0.9374301261421083 -0.3352615678190355 0.06912076605706159
Ni 5.702499505689948 7.146232440821559 2.800951085679704 -1.1827449922976663 -0.642686315931461 -0.2747604251101849
Ni 1.7785776582323134 7.749682742897394 9.587438307645593 -1.57773482921527 -0.7603402537022196 -1.053838878651856
Ni 5.445026634004773 3.586950860829493 3.277263827805638 -0.03261032983585351 0.7134433320403648 -0.2514430905404831
Ni 8.874262594060937 1.823749151948447 1.609557349288633 -0.38183195937940695 0.10923203225565059 -0.7571970800875475
Ni 1.436147095385243 7.8577972080218865 12.04396255686076 -0.11533737382244008 -2.1579173701855545 -2.1431589809294573
Ni 4.898892597234116 5.74322348748624 6.9938768383366074 -1.4847899641554172 1.9940177711836948 0.478086348428467
Ni 9.116071681594187 8.596687711297566 7.305484936530014 0.2676168720868682 0.7911657237235085 -0.8018815674791158
Ni 7.718150904735013 2.5252025611514735 10.064199514960936 -0.38623060266773485 0.08449879117502868 -0.46709436819333744
Ni 2.8735105249281045 4.49859795446126 9.086854592328708 0.3334887921893289 2.441870260428285 -0.31988688513517816
Ni 2.9206411522874247 1.647222854203097 12.136928554976441 -0.22457943338041966 0.3941637414718825 0.3204473856243384
Ni 2.3321768298329335 7.825485430399658 0.522967049315133 -0.015248955739270514 0.12164480409770664 1.015718674741367
Ni 7.792152303484772 3.7602924057804676 4.731220469356742 0.6233475063935329 -1.1139450999151332 0.2091463866548011
Ni 3.8066709486606496 6.731731757887207 10.071035127226882 0.87958133345444 0.21767884960584447 0.08613812655066455
Ni 7.634325982788609 5.281378622340466 12.886839417119885 0.633367095413064 -0.5603410807643252 -1.5570302496780668
Ni 7.3942531890528755 5.441916161158955 2.7791944887474034 0.02687625556555371 -0.3096068433654087 -0.4499805913311863
Ni 4.742616870464077 5.293439828987386 1.431317041730334 0.3091841540056933 -1.2792521207874807 1.9204199431918862
Ni 3.474073194003792 4.283984613093387 5.7901851279625935 -2.18479285442016 0.9103535816402902 -1.4113047504820726
Ni 5.599705341880839 4.444002192271977 12.832467423275629 -2.101222488596672 -0.4001826939724527 -1.218317232975321
P 9.075032010016528 8.923408065024862 9.936308942032541 0.3019668103216477 -0.4909359506976254 -0.8741961578831268
Ni 1.015982566373431 8.96678755498206 2.177898305179717 0.21717311361401953 0.21365275916558688 -0.5628242521974952
P 6.610711151700962 3.0122097588708794 7.907664122986171 0.2521905102294689 -0.36332618726573557 0.5211705812124509
Ni 5.4232533240840475 1.9937573842079332 1.3076669253651767 0.7149212021374719 -1.380723535261106 -0.21679490433899437
P 8.683715956025482 4.079445489748536 11.335880590748392 -2.3173046831393576 1.4989050634005605 -1.5788884832037389
P 2.96813389439596 6.7267271463531895 7.8832705878801015 0.650790175985518 0.05364812434275922 -0.460894924250845
P 9.512104512318592 6.925333158807063 0.3744257221885758 0.09064655594397937 -0.603592949474425 -0.20756335843839738
Ni 7.754185964778653 0.45363785932959877 11.417960862403067 0.3335728672627029 0.6512246924197753 -0.24644229489178202
