# total energy = -340867.1896593851 ev
CRYSTAL
PRIMVEC
9.25043730089859 0.00000000000000 0.00000000000000

0.00000000000000 9.25043730089859 0.00000000000000

0.00000000000000 0.00000000000000 13.53895003839757

PRIMCOORD
 96 1
Ni 4.899845600540708 1.9910548610026686 11.085733238309317 0.8589158346852885 0.48660132787801363 -0.9640305023384558
Ni 8.157590584066146 3.463391453797788 5.026944758124624 0.5436093698319412 -0.34952270572374 -0.7144612317819179
Ni 1.182649900201493 4.013357699000524 4.1669501088385 -2.134529073168601 -1.3465535742476165 -1.7920691878289137
Ni 2.440672363030808 1.6284932238358976 0.16911649361338224 -0.42777937264379867 0.6111033989188572 3.7080843170848845
Ni 8.652710986875613 7.459543339532756 2.032520870972658 0.048272976073774926 -1.1320654636649277 0.23893313099893043
Ni 0.48947023574355203 5.950935782321376 13.164922565155484 -4.0411805018214855 1.4981992955827874 -1.0704572039348275
Ni 6.53396309021825 8.404605009673746 6.1999723535095415 -0.09384552249725128 0.11873688642229228 2.014532860417911
Ni 3.6725253389094465 0.5713236547013999 9.247860992774912 0.07392255832107913 4.037698971030788 -0.22410223663368503
Ni 0.18776722517575514 4.603961114996586 6.488325133053225 1.8259172467266103 1.1536074515017616 -0.44496179796035623
Ni 9.032922458295436 8.839329307746215 6.008788941861221 -0.14958472504108433 0.1902428648820788 0.6559331536390381
Ni 6.022238152563797 8.610945262739062 9.541886140433887 0.6185775958087153 -0.8968653173458683 0.21930404391409328
Ni 8.01077689463731 0.8639945383485038 9.852970944450028 0.21582816955035086 -0.18977312433451188 0.8923468606502245
Ni 1.504444860453584 8.817729536791877 13.031090014304903 -0.35646776958300547 -0.2730799520839684 2.179799514970626
Ni 0.4279853545434608 4.972091515381563 1.8769858693143773 0.5266845690521446 -0.8379847409595761 -0.9488167707124949
Ni 7.416602809866783 4.150671189384346 0.77150589169635 -0.47588162746766427 0.43112643473916074 1.4685426490586193
Ni 5.279835061466784 6.1999020501865205 8.211021109561765 -0.1006859424578524 -0.06111460792313346 -0.17917966508938174
Ni 6.044180189696001 1.5395502697776615 2.1999981871071923 0.49795789054141343 0.6932300903172836 -0.6048589606710423
Ni 5.074022083324122 1.3496850454359774 13.408610533531743 0.08053235032811291 0.3640185853470699 -0.30129600950686813
Ni 4.18524007334853 4.340175646673688 3.763584793008091 -2.5763782936419046 -0.12543126772333238 1.3869674592882888
Ni 3.1051220195101665 3.307521586311436 12.276632678441036 2.012059973397386 0.12495381386628157 1.502393279059477
Ni 4.367806702708212 8.862557155654716 11.4072691863187 0.21326323703665206 -1.5780693297365533 1.417186148963514
Ni 2.460440547411718 5.4100534664878746 -0.04361026132211625 2.101928256414445 -1.888736496045676 0.5600472036729903
Ni 3.3798507550874466 1.0860660849833919 4.373785260296131 0.43226800454277164 0.6121171848953523 0.932095344192756
Ni 6.403800187820597 7.148839653530881 11.754516724635401 -0.7328482189295379 -0.4007632490662711 -0.07418043996815611
P 1.6715817604977035 6.456573932272207 9.72673392761684 -0.3250211210379499 0.3603781603810051 -1.8410219635785328
P 8.200003838809465 2.203352395650252 0.9678482721931644 -0.4484656973485566 -0.31487246263972224 -1.7605688032277873
P 8.550706415435137 2.6111024187322056 8.549007110114232 0.7741059400277442 0.6569677655511394 0.12886163356112
P 1.4257236395450466 8.084179114133107 1.6197867123060368 0.7566664043950582 0.1844599396517146 -0.16356047049488606
P 0.49171994208020964 0.6639630834805585 11.51480921940332 0.06838980142830801 0.005779325685938434 -0.35857581706494374
P 5.894147348107802 4.6533306985440435 2.620937483605291 0.2584082090044066 -1.3856453980427557 -2.1284903231736894
P 4.272906467067709 3.050544439796844 8.573838058796346 1.5582654076367486 -0.1882721143089532 -0.338215765351353
P 1.7385734269864965 8.542751039409128 7.183929337111651 -0.025373702878098238 0.7660072221800098 1.7593945804140279
Ni 1.58788380435429 8.930603371988818 9.873360758213437 -0.8065236942368174 -0.8800060796966844 -0.26362420598770725
Ni 4.433114789619408 8.491235354422095 7.482598204264876 0.26057590607968667 0.2778472915656247 -1.2794536952753257
Ni 0.9761986418893026 -0.01634459755855405 3.785625809818757 -0.005582636294100063 0.012902052773648748 -0.36173621707079634
Ni 0.1604553092259952 0.5576570587236944 1.4942397780909167 -0.20445977981240915 -0.010850055340626476 -0.029545060646968473
Ni 1.7520605644817546 4.6244138317332215 11.27112125102706 -1.782835842156104 2.1841181969506382 -1.1078508140919372
Ni 2.5195138396234595 3.598716100175108 7.444649210533362 -0.293013714893418 -1.0924841018278797 -1.0356825194578034
Ni 3.6642369471428133 6.278095996172404 1.8024402957757708 -0.2592746707697599 0.60252337055933 0.8180072693963847
Ni 0.22702515577666496 2.6491402166612197 10.812435545372994 -0.1197802400851421 0.8973486847401899 -0.7324946922448611
Ni 2.2404929011670296 5.598975146231124 5.26648945566129 1.6553155531142267 -0.9038479193112885 0.8618376363177738
Ni 8.432393323141342 8.26245354061364 12.2047003534226 1.568799217288537 0.24247199739012434 -1.0366009175070148
Ni 2.4125325329481084 5.871058256757895 7.573404196383158 -0.13100156272225827 2.2238471401091444 0.11861964411813765
Ni 7.3419425309064055 4.017455642697643 7.184443661422169 -1.2391105155715885 0.10181928473134723 -0.3694965777425056
Ni 4.272758460071876 3.6885100944593825 1.5031211228846049 -0.4797115427367158 -1.4291386933397001 -1.3343362062458182
Ni 4.738878742135366 4.292276882647318 6.4191956905183725 -0.3677587691157924 0.08607487741289692 0.14091547940186053
Ni 7.6353756505820485 7.383171729683063 4.510609402549981 0.9154456514512168 -0.3456089724916306 -0.9255891676431222
Ni 0.9405104550191336 1.8702349002169565 5.853862618973302 0.05306371259419893 0.6161067656707196 -0.32003112402252626
Ni 0.6356373196093443 4.543296747579642 8.810255183502322 -0.12064515918859867 -0.21969202338113133 1.2194287208719452
Ni 3.3934951500157773 5.114520497558855 9.561490592075655 1.538185606167738 0.22231789103975258 -0.2927933713524957
Ni 3.7326531809664965 7.758609975487281 9.473365376669395 -1.1600534642374216 -4.470116870887862 0.8971620226506808
Ni 6.743133977078866 3.3061802729117016 9.615456717887444 -0.48413872527013396 0.37497894101331547 0.8587322579195726
Ni 5.296550601558644 5.583462162980406 0.4570585537436303 0.6158663675251395 -1.1613441580243868 -1.901850664830131
Ni 4.15426960947053 5.7103596610325 11.74888413340024 0.5101631743583537 -0.24062028889336623 -0.03863365321179798
Ni 7.8474326738614035 5.232417320176871 3.164607881222792 0.843224906312593 -0.698961593484422 0.012971472559003468
Ni 1.7320241174208977 6.491309324106702 3.017885771122627 0.16283901894782923 1.2348792510990605 0.48399448638278586
P 5.451051404333542 1.197691111152995 6.270781675447094 -0.7821951447937819 -0.32559884791829086 -0.07376237859413103
P 7.270149887490288 6.25778203599436 0.12458673882965511 1.8076804120036092 1.6715345860762503 -0.46687608153494425
P 2.7926237486838192 3.15620293394694 5.121419473652109 1.089207487959137 -0.7661357773380741 1.5567718538103577
P 4.4786176904007355 7.1569060348037645 3.6431959025977414 -0.21499950300146844 -1.0040872611500258 2.1604465643653117
P 0.2257994728424251 5.942406879186514 4.425558107438423 -0.877601841130566 0.6623136032440852 1.1228339177643307
P 8.519032918326932 1.1949344808556104 4.519179932652421 0.08294430220371522 0.807726713405983 0.4883867019132105
P 6.575701063043081 6.025364800350764 6.385564800890279 0.4886903491965584 0.5482275853302429 2.6407823709495877
P 3.8833058018497444 1.4667308278279545 1.8742643906785028 0.21517922311244234 -0.6635215075092573 0.4978781863434135
Ni 8.530586714439124 2.704097064301363 2.785354755100984 0.7758087816514638 0.7988366100052049 3.3946789259089925
Ni 3.468710455210527 8.695855026160856 2.803063792152371 -2.9035203176775997 0.23986155635047077 0.1774164025413719
Ni 8.70944391846575 7.317586129654681 10.075524438865099 0.38140798446811086 -0.3181323643379166 0.19112012528070957
Ni 5.709730631300211 0.487697851968455 4.289734862493892 0.84364682434136 -0.9737474725159034 -0.39622576620723376
Ni 7.204804798830135 4.1026521696738625 12.0458203936585 -0.12094469270688847 0.2147904723144559 -1.4025827972280425
Ni 6.008667761133383 5.601574519095437 4.498208266386646 -0.771238131561646 0.2016318234453108 0.13510658602956732
Ni 7.589271471380151 5.50227107532891 8.840433809952618 -0.7570394714637607 0.25361104472607937 1.5849226052129608
Ni 6.081431700459653 6.8787823887595705 2.259244462495314 1.5062105959230383 0.9959787731102783 -0.12964787690784121
Ni 5.947679628413056 1.4059924569130946 8.383805401540627 -1.037621131241413 0.6554011923949681 -0.24703262017761327
Ni 8.998168565586463 6.8816500243038305 7.765752238079935 1.4415710055657815 0.5067844876941079 -1.3778017336286206
Ni 1.3971490389120886 1.7666207526968003 8.725461050546024 -1.2368032075946507 -0.49907143532056625 -1.2876637418899437
Ni 7.703967642713282 1.753337124820812 6.725811608304092 0.11099760879650561 -1.3537318371636105 -0.7416820151710839
Ni 4.327844813833373 6.782947858957874 5.837507845933785 0.051998504554478193 -0.019300500100824826 -0.1734011107343917
Ni 7.182807259074494 8.518875660893858 0.3891002165633047 -1.9622993570344913 0.6256365595380258 1.4810970886848622
Ni 2.751135537664455 1.102041590096088 11.70056354943575 -1.2941192677073001 -0.3447887905831804 -2.793739354897014
Ni 1.955921700366872 7.7718473511770725 5.335767830235699 0.6927197263397683 0.9276259955674927 -0.969493582335556
Ni 2.7838543341807296 2.931139795908783 10.023155863564579 0.12881072571852653 -0.8427860190029615 0.046466261882339335
Ni 4.552380676948876 8.54944835597056 0.8858588718078951 1.6528310961294763 0.060720714918824456 -0.7618770020617202
Ni 2.095547800060581 7.207579930001998 11.634615332267577 -0.227743175820382 -0.6864266942422049 -1.0426682067470172
Ni 1.9551076618897922 2.1268142779302472 2.923736670985974 -0.43902614920221167 0.479424093403284 -1.589951940106752
Ni 3.041377256492454 1.0674079530712275 6.70066984493073 0.6063157477222267 0.37015426593116246 1.0285803611953834
Ni 6.023616467712491 2.9012053810016116 4.631715201846396 -0.9901986760933915 -0.4729284583766113 0.12018596016399301
Ni 0.6260372158421433 3.408656616651393 13.084596393385883 -1.2710904109122947 -0.1246761347248627 0.2101653148376187
Ni 7.9145908482205085 1.5309936153310815 12.65227073368963 -0.25881932839989613 -0.29774145938639046 -2.0543343086855654
P 6.383393723270157 0.26633396378239227 11.666743025844246 0.35808730746429945 -0.6183366834425028 -0.13840839670929067
P 7.892889322456534 8.692154851265038 8.224939317432385 -0.4972436380832082 -0.2675081144231457 -0.7615162762881917
P 8.878199645026788 5.175869397331525 11.124061499967652 0.29239870701723836 0.09837297805395961 -0.6512791998067945
P 3.4736964408826423 7.2821847063389376 13.200151005294847 0.9956267890874982 0.4697328342574491 0.25597388853130115
P 5.879170890216977 5.4492568195090705 10.358569317520729 -0.13226963080140447 -0.017317151122208885 -0.8481169442975717
P 7.158071589895947 8.931657921834127 2.6197053253649836 -0.1713048903269953 -0.4586488085291456 0.02048063645185505
P 5.256764470991356 3.460533068690768 12.761272335858099 -0.33510961562220354 0.5767506324706002 0.19236196810761064
P 1.967096228552244 3.6117962184318264 1.1639926933330524 0.5119331217745828 -0.061674337081345385 1.0648804811779982
