# total energy = -340867.38206917566 ev
CRYSTAL
PRIMVEC
9.23594195526767 0.00000000000000 0.00000000000000
0.00000000000000 9.23594195526767 0.00000000000000
0.00000000000000 0.00000000000000 13.51773463485538
PRIMCOORD
 96 1
Ni 1.7113461682982547 7.639121530173092 9.866486244145966 -1.0003545335804709 -2.726240183603776 -2.3185902347200003
Ni 8.20636538105912 3.9883198976294825 0.017348793485587294 -1.556818647887893 -0.5156218834800798 -0.5576774178892331
Ni 0.2953100100661032 7.57326926358864 11.546118958338885 -0.9338087273394369 0.2846018366806389 1.1359120911045277
Ni 5.494378782705766 8.609255643744538 2.829343095598145 0.9698165128926135 0.7493948104343093 1.40014230610735
Ni 0.7738925119613711 5.189444921057476 11.617884998597114 -0.9461549076096156 -0.23864876698929224 1.7808398947719974
Ni 6.105197808030147 4.459722378200381 7.061988756168976 0.5711523124472164 0.10786240560163358 -1.7049944083965927
Ni 8.497426857797196 2.0615730896001447 8.513064231226949 -0.2099017767635869 0.20166936155146561 0.9538610180046219
Ni 4.444399950393423 6.448922626151749 2.601852607766213 1.6409500284211738 0.7035939500501108 0.7363096951155771
Ni 2.2288821792463405 8.227561867989179 3.676607778134581 -0.6148530957692766 0.5717410950711508 0.834931041734917
Ni 2.6910579537418013 3.7373978248992676 3.7221483610342476 0.8216096420356626 -0.36155623984950636 -0.11760945768606841
Ni 8.422006155282658 5.634995999921518 5.614240067425691 -1.29751363810083 -1.4191265605193366 -0.518393789798262
Ni 1.2560326987217625 7.7633172424818095 1.6809442179593983 -0.5812413212521021 -2.0481901434610403 -0.6409153400739671
Ni 6.30415847097016 6.810620587439318 4.366782940867135 0.7316999642577077 -0.842553334166865 0.4940048194309363
Ni 1.1868000773589207 0.6378572455804795 9.674290908733738 -1.041084407199665 0.606762091231026 -0.7243520085330686
Ni 4.380385636270443 6.49377236058851 6.746687549606091 -1.181754860470255 -0.8447421142880678 1.1242536809299928
Ni 0.02700312367643291 7.113624137205961 3.767960480629228 0.023038884097334515 -0.2938025293433005 0.6397606576442336
Ni 7.712972122544662 6.0231456991470775 0.576730086932156 -0.5474914784951667 2.2651141171787312 0.7887838537548931
Ni 5.102765605223662 0.5370395497063453 11.980755000926697 0.9840730228116277 -1.3614436039855715 0.7626833000130995
Ni 2.4042265384477215 2.748025244105463 5.856612428630348 2.849217333359661 0.3071187868362324 -0.967003983144483
Ni 7.60280580616046 1.1619831011580193 6.438631939555901 -1.7775069737440226 0.3670743414542581 -0.6644311638077202
Ni 6.021769543786477 8.560702296558778 8.991672593759864 -0.7946840212894121 1.1449258645673637 0.9608302502336032
Ni 7.74067071265501 7.025328531519092 9.164875138007398 -0.28495562047563183 -1.947686749327639 1.9376327075257471
Ni 2.204563943914381 1.4799673488769742 3.5443906501837055 -0.6581527869981761 0.8332081455065392 2.1710179121232547
Ni 8.841022372730553 4.658073468967242 9.424524252349906 0.21574203759444782 -1.3361951138314276 -0.0031791690589300084
P 9.091122446621213 2.287964500331999 3.2126790218442074 0.2914905933806722 1.6753249063566182 -0.2547410445654645
P 0.8881771348911562 2.8050664220052646 10.139368616211081 -1.1263409024763247 0.7696134514740294 0.08784585327039066
P 8.815642004066586 3.7029292892901258 6.873808284751735 -0.42167145997384803 0.5576807603233428 -0.968597809994164
P 6.149687340728227 4.587169142099241 1.0097082779278368 1.2562844562477138 -0.8967223640101007 -0.3388410576401778
P 2.9465148740025864 4.219809548354973 13.41867664736341 -0.599125914842007 -0.8494947984817047 0.6869614836997524
P 8.249959027381507 8.964165187649279 9.528854376973278 0.8526742246509509 2.4852601973781456 0.795915579703668
P 2.630571769469489 6.124362387716366 3.63222907674071 -1.6101739235805816 -0.6137657762423688 -0.11692837245864379
P 8.994810043263193 7.576012338367823 6.031410020064296 1.0505640645553262 1.1496860049601683 -0.9508569410709753
Ni 1.5003141291414275 0.6311565696468159 1.683038929608957 1.8419971830076083 0.24103577916423008 -3.868659222588885
Ni 6.568352592379458 4.545838301571131 9.224529163903938 -0.26541420800859455 0.23910590913136887 1.9641019574608694
Ni 4.230975802254075 4.422446116217933 9.282384951889679 0.27618327359964046 2.1284311878009796 -0.32071143791900253
Ni 6.346505265120191 2.6719026099975998 12.867774872283068 -1.4319841332082952 0.29588897955868393 0.5109923551278683
Ni 1.388051253919263 4.92259084834715 6.049699956041462 1.1316774841978898 0.34989140191706836 0.1951467299415994
Ni 9.144598550902279 0.2281360801789519 3.076217054942109 -0.09759779045083192 -1.0214267808697377 -0.22809130318842008
Ni 7.1035569604069355 8.132874990426233 11.512338500410044 -0.5081003782920539 -0.06733950578692274 0.1286091512306817
Ni 0.4140075660918284 1.9064369715329543 5.34339791495223 -0.765017861683547 -0.7730224771555784 -0.11009026649088784
Ni 4.629802250451813 2.092153293619938 3.0131974517744093 -0.006423901248472807 0.991371356245254 2.2848295933297877
Ni 0.801276156448923 4.808961053706403 3.525898447076357 -1.4060504440616688 0.1044610932295685 -0.14030689928358417
Ni 1.3742897003132553 3.0206056008666096 7.8375418905050855 -0.8481164300769393 0.2220435543324434 1.6984941453842297
Ni 3.7900704022248126 8.192132794410222 0.5403820371224621 -1.0123708413150565 1.223959518862763 0.2011350863145504
Ni 5.060788248754329 2.5470049660955567 5.445348860911905 0.02379761664022998 -0.5494339469335182 1.6606901871625788
Ni 1.9777753876757762 8.1160840478385 6.1187617124769815 0.30103581386694606 -1.1432235371642763 0.5706545468751915
Ni 0.9057522089561713 3.977772451845549 0.9078810935911946 1.458732862057049 2.1148801885894226 1.3491172212097347
Ni 6.157233105356489 7.983289673511533 0.7244478963709262 0.1607577109387683 0.2668712521700953 -1.0286258697213382
Ni 7.784957054628706 3.287210303142463 4.7969709537793435 -0.2962129385570059 0.2325511387319866 0.022800285723967185
Ni 1.195685053579712 2.7848766527551083 12.39608700110383 0.8989047163734003 0.5800113054997429 -0.08393057737638449
Ni 1.8898676915536403 5.035093858061769 9.671668824794981 1.4074414108719244 -0.5489822041080804 -0.8911330428477814
Ni 4.835505151064569 0.9731819744372061 7.577636940568693 0.8883680785081347 -0.9124377178628287 -1.3780832694247815
Ni 6.066905592425779 5.2474928166371795 12.07494590840331 -0.2758570006084733 -0.4472847896665781 -0.20133383258891777
Ni 2.5975717486411227 6.707205744669876 12.499052053497024 -0.737829217083897 0.46595922614762975 -0.47883505366903345
Ni 2.6606255247942876 5.866596481951217 1.3133629616067104 -2.9900932177728374 0.4647513218824577 0.36116003285235215
Ni 4.6992011187709695 6.021908082916739 0.35213691411109976 0.6786606771435408 0.016555333255519875 -2.451819658331513
P 7.88132487363883 5.596648368665044 11.147332224691823 1.2400283994001675 0.9343396601422426 -0.9500059059245897
P 7.502161745996254 7.4809652590661955 2.5550273053319184 -0.17895315090087244 -0.24587305265187331 -0.7763332866963661
P 4.691239736751923 7.244285008926895 11.852984979057227 0.5486682724120873 0.40460113475512255 1.260121570605617
P 5.24800079344814 3.4434824420778005 10.87970787441724 0.7756902537957285 -0.9721204784354419 0.826597582168557
P 0.5868258951514359 6.419423027347998 0.15661941035519333 0.3966469129050524 -0.5334000333991072 -0.799886648536274
P 4.050653270305285 4.220068154731461 6.6999841616064275 -1.7593519001015505 -0.5693029179433033 0.449414177304755
P 1.749970877815251 0.4895972863452846 12.919723351754445 0.8006906324948081 0.3859745207928707 0.6278240541076479
P 6.997934727495322 0.6575455031790881 13.194201694600178 0.49943036132188184 -0.4826757675713623 0.513766832549212
Ni 3.5668099758368754 4.783155831709634 11.488181894063391 0.21668408979274295 -0.1298589644773828 0.10022751476419513
Ni 8.095940458298431 3.1576392725795883 11.44941310385092 0.9415091813074882 0.394572803984843 -2.072107059287954
Ni 2.9257709482313827 2.283762146714057 10.714372505580176 0.9569424851434228 0.05902070150858222 -0.8210216307426763
Ni 3.603578261008363 2.682320752593289 8.325316001896125 -1.0773860698441768 -1.5084502838868343 -0.8909026720045301
Ni 4.182477870720419 7.464793124593632 4.806677005245487 -0.8256156778712621 1.6446840415423092 -0.7771789225261131
Ni 9.048129136529962 1.94677033032318 0.8053972337771115 -0.8735086448977988 -0.9649753827502283 0.14154668522795624
Ni 0.3238361405812144 0.1308077231990121 7.203141658021739 -0.8530899720321308 -0.10784389365887233 1.302704181162834
Ni 7.458798998224303 8.939671469418988 4.348871678512685 -1.0634527475925362 -0.1115686508086272 1.6814317905853042
Ni 4.1860152365131045 4.215200813288262 1.7886934883176324 1.763517601443466 -1.1628299985412942 0.8063113211156954
Ni 0.033720424305727865 6.284642925487279 7.861238546939269 2.6707300663516134 0.036126313408911974 -2.078364095941259
Ni 2.9018960381162615 8.939422098984517 11.108131192392936 0.2888233309611542 0.23533101546996893 2.4142627831236614
Ni 6.631840457807443 1.399152856224244 10.063723480305523 -0.23722900382363019 0.7273931093522377 0.3916692571848029
Ni 4.288811271167378 5.079823525252303 4.693844272400845 0.22537981779452798 0.3360737793076857 0.9797939358202998
Ni 3.5107847515589943 8.539838303541348 8.37808925098966 -1.5714775354516484 -0.322018072545568 -0.41492257128578863
Ni 4.007466005431667 6.78045600081031 9.864850558814675 0.28999498267175217 -0.41998070253498637 -0.1734329924135916
Ni 2.611056223986607 2.647787565390025 1.5691791600119747 0.21375586040235442 -0.7040978862697229 -0.8696843860557023
Ni 5.013795775769519 1.177425596211204 1.1100466284112651 0.9650910823924861 -1.3019760447475577 -2.2484911639100695
Ni 3.82295959174897 2.181631099885041 12.927172138991521 -1.3185403768641422 1.163583331767551 -0.060340962981902536
Ni 3.5439325474596397 0.5028517867345341 5.24231237675959 0.6378084190138693 0.7975220049588394 0.456524048876659
Ni 6.966255446375451 7.862779102067781 6.714799536196627 -0.15520489944133917 -0.5146260952257137 0.312660542590068
Ni 8.434825642802885 8.33668452292541 0.339899290937972 1.1991005508375543 0.3812110379659564 0.2607332575931574
Ni 9.146131717277175 0.9249241773960041 11.991339390478702 -1.6580555777532093 -1.4089179954174509 -0.7934534913164206
Ni 7.4185579988542525 5.13474043648809 3.0712157923396575 -0.015308605332612345 -0.09419879207161196 -0.652206082496438
Ni 7.166989410182816 1.6152554275486535 2.3451516061156767 -0.5330331369779917 0.022628536032793287 0.3741775281579427
P 6.346459085410104 2.368972947767096 7.899615733210198 1.188477266795753 1.0786255986782327 0.279449603055738
P 2.2890635774320764 0.9906656126762482 7.119587784966631 0.846180389396491 -0.860162562608196 0.25177630551018576
P 5.798675364354854 6.647375312280802 8.234314265198142 0.40638290924589365 -2.0012168600352953 1.1369122502342677
P 5.787232032195227 3.815589310019041 3.988826950846241 1.8156127794768087 -0.14940423359916205 -2.177277776990037
P 4.372128704106839 0.6566939493250787 9.979021579657646 0.7652330630181465 0.934486470132752 -2.0599855934340714
P 2.3153952481238402 6.3406496778811245 8.05500214530606 0.07733055556136359 1.1356146144687669 -0.6835771406085518
P 5.622167276459273 9.15881266566714 5.637111954237716 -0.16267112591139726 0.29304688212419855 -0.7112319262113428
P 3.61560345751509 0.11945767405376176 2.4909261733539743 -0.9480433828815802 0.6412038178486634 -0.7681859749988835
