# total energy = -340871.3749162127 ev
CRYSTAL
PRIMVEC
9.22800345294316 0.00000000000000 0.00000000000000
0.00000000000000 9.22800345294316 0.00000000000000
0.00000000000000 0.00000000000000 13.50611583426845
PRIMCOORD
 96 1
Ni 5.9970947852377545 2.6547950416542503 10.625220817577821 0.19012613679855644 -3.256723814687037 -0.6788787066916179
Ni 6.808753043578329 1.0034253949381389 1.8329287660621383 -0.610916993939664 1.3093551108204482 -0.3506791879256864
Ni 0.6394157311272115 9.010084003022657 0.6213611426688536 -0.7442839715703052 0.49891074137298597 -0.927278639530403
Ni 8.109024848702237 1.1841558395877378 9.849308152823903 0.2978949542451192 -0.006713921685065856 0.8351416150838261
Ni 5.526383564858311 9.280787479856764 11.693392652076591 2.965668766181886 0.18805279920929546 0.38531631838358155
Ni 3.6166667377280985 0.9572300104134571 11.107740190981191 -1.1782162511893772 -0.16497534856454169 -1.1078333305904404
Ni 6.031478325537188 6.522786449284408 8.69773547009158 0.22157021424045067 0.583052663429228 -0.7833212879784252
Ni 0.4322092222067846 2.3421133778040075 4.831367268242064 -1.1343941117981042 -0.648923040869792 -0.14677990860243753
Ni 2.8596936269491033 3.212461737138783 10.904216578178184 -0.873836460550863 -1.1818114247398035 1.0817723718373304
Ni 3.835388871967812 7.677412678309025 11.84638925560544 -0.9119949738984552 -1.3988840082202165 -1.0335844992781942
Ni 4.188839854401764 1.6329136401141613 1.2968168406880236 1.0427723364250494 -0.34591596220908816 1.7424903484595213
Ni 2.4122738869013216 0.40009115671774037 6.438324380671243 0.945385633543759 -0.6392199546494153 0.47413250598704154
Ni 8.340370891457685 5.118275118872684 2.246526028411186 -0.23236447664247722 -0.030730853424953523 -0.5866776617763251
Ni 4.823486553423031 4.283371520216954 11.733140430694881 -0.13843127952742612 0.4071658101585052 -0.4727567086854374
Ni 9.11002327877222 7.856066822215905 11.300336925075515 -0.6243510079573827 -0.14250364982458683 -0.02620262653729681
Ni 6.886766583484772 5.109047115571708 13.30432057432618 0.15564584363349968 1.0982204900910248 -0.2030533863831858
Ni 5.615433796712722 4.79187141411389 3.580849165715693 -0.7866349257326904 0.8829520496988859 -0.24607539847066653
Ni 1.4865944197738987 6.464557748455254 10.08609687192627 0.4299678956546853 -0.5825484700992999 0.11550500974855592
Ni 7.979020738198098 3.767498451682538 11.174501103662427 0.6449247183436764 -0.13309135537175143 0.7228018904371293
Ni 5.405579773645245 5.7085258940129595 6.215717257041819 -0.5953224819355166 -0.8604988629016922 -0.6814996892542328
Ni 8.854758251460643 1.9958417819382144 -0.07425405136162694 -1.2409257144034564 -0.3975203166489412 0.7131085744087655
Ni 2.8418651245716195 2.112889775807784 4.787553631369364 0.7612290840650762 0.013940007119859862 -0.6564252627841082
Ni 6.723846185206056 7.760999932209258 6.447549615571227 -0.06128430073177833 -1.1907190116420783 -1.7251264032597773
Ni 7.895442712301167 8.542584127791955 4.281775998446215 1.0332317439244656 -0.7291985379920926 0.6697335498572401
P 7.431458706328134 1.370044738082582 11.94838822169178 -0.22905135310884422 -0.23410254237950648 -0.17582643234643267
P 5.168946084998338 1.0790857940028344 9.265735683672544 0.3411198263720254 0.2917497605793298 -0.7750459353435103
P 5.375238098791638 1.6783154163549594 3.3557966212115105 -1.249174841786126 0.05254666374846434 -0.028017054038216263
P 4.012474255313526 6.555066004831219 7.587263391261469 0.04197685865241803 1.0688232678758303 -0.20528047594149165
P 3.111248996933687 5.556291523556772 11.629819091735515 -0.3778305515294977 -0.2552202981947282 -0.8148903210339579
P 4.221303970014595 8.784173254211485 4.976328126496423 -0.34099667053059984 0.8633676998090549 1.906659656183
P 3.462992798756958 4.898787060358989 4.190191756885357 -0.41433430288248646 0.30470683496063006 -0.21460021068052076
P 6.170175215150845 4.539596259871831 9.716988736291551 0.43648667060980956 0.9103214428507742 0.24585634048132493
Ni 2.4503763125310485 6.42780261130747 6.008398166481119 0.6933257353548834 -0.19151684649849596 -0.24800732538605677
Ni 1.1275697233461581 0.13869873521431728 4.538743592366821 1.2146063597826373 -0.8715520353920603 -0.18902621886615834
Ni 9.231048542064508 8.149683431246334 8.773653330448374 -0.5506647340168259 -0.7516188146688217 -0.27998182141012423
Ni 2.9160029030916546 1.0486426111129175 8.835052773211741 1.591219493965266 -0.21753949581450277 0.1294928393872157
Ni 8.916918081696013 3.765514430972828 8.763807973726562 -0.41830717148730534 -1.517023370267826 0.10451097263089744
Ni 6.387347044835995 3.8107039631377035 7.614302363733657 -1.1621324582536372 -0.9181712779124962 0.5910498227020918
Ni 5.877739790542941 0.7978540882026448 5.732873057922252 0.9992918966439114 0.009964053191247355 -1.3467415218887064
Ni 0.6195478400202119 0.7261155905408636 11.803629456709713 1.027585601382282 0.5158036604735826 -0.9955799950099629
Ni 1.1767734369469578 4.557904618420966 11.389410226938178 -1.3204800170890163 -0.19539509850697964 0.1512284312920944
Ni 7.233259651429789 8.846388452466659 13.496918231220834 -0.016033913534411096 -0.14508452317788562 -1.4460619514575999
Ni 8.209923836795099 5.7558194109304575 9.758262826655823 -0.06467250047772087 1.4770134055337918 0.770960195309911
Ni 3.957023183477966 5.523301411755785 9.415383444803469 0.4567958144808068 1.3011316944693914 2.068491316912238
Ni 2.224963875898127 4.326853871771148 8.664564489425894 -2.1396134296700438 -0.35009040530175184 -0.906955868812651
Ni 2.6806888189167872 -0.06023671434744563 13.009103829523363 0.31677636453065444 0.10334009225124784 0.7390638608219465
Ni 5.747255823867152 8.640687030884623 3.475920308581294 -0.6518394431856387 0.23649135432665722 -0.08219996783852296
Ni 3.054653652688806 7.502643523791857 3.899174676384813 -0.5601428487105902 -0.31638118597476483 -0.7369146756894277
Ni 2.7532301528657532 4.311655350334442 0.132214217294722 -2.058941982660906 -2.2280488368953177 0.05052860487717104
Ni 4.29772106534997 5.744948823041908 0.012627599717054447 2.565983837781458 2.5293983253479406 -0.27664941460278164
Ni 3.0710056745381342 4.150728200768737 6.156344283803343 0.976717610887821 0.7936018439688268 0.018746684479883844
Ni 2.3186927054261326 7.767090414387902 8.252033984258441 0.7271316281607348 -0.11432590183879021 -2.4379863519928464
Ni 0.8862888122368803 7.938076087551671 2.710110461841286 -0.772184040414683 -0.9946091464562612 1.290947040626906
Ni 4.219864401499643 3.298392903877464 9.221529856659552 1.9236415354529774 -1.9022026488529111 -1.998866614635564
Ni 7.762181116631783 4.208919989584686 4.282695107574992 0.25555505582632765 -0.14078820979537687 1.4286905500586877
Ni 3.840233573700824 5.848182495969917 2.2297513640106734 0.011879782156721476 0.08403342150283592 0.7394307572430621
P 2.424408711242104 7.854461149641535 1.233295879965761 0.9272858386192547 -0.7347456930625669 0.5521636871598555
P 6.790712297124922 6.293535163278282 4.543673191730202 -0.8819858291308745 1.6346809075830107 0.23036724370679035
P -0.2917534751639616 6.124561194834125 4.114989066784389 1.596655834489489 1.5059246892515032 0.06674738072887859
P 1.889267571815252 1.564229611545003 2.737392130800289 0.7847505642257839 -0.22888474562399294 0.3458344582388754
P 8.942119758710977 5.888361222342364 12.125020510075416 -1.5421391914988474 -0.1120147372071103 -0.08639909352153508
P 7.317705109637013 8.007378392341995 9.88835368039099 -0.4558987565878342 -0.060107506814857777 -0.22447736058491666
P 8.11775453982496 8.46608398042687 1.924972562187385 -1.25006650036246 -0.8884912343495601 0.6902013307932887
P 3.7314354147823265 2.166292230910527 12.846450120540045 1.4421744434777357 1.1385320452258778 -1.6584942079525244
Ni 4.516452427592985 2.251512841395033 6.9333910701629495 -0.75314707838789 -0.9823087318223533 2.033103424331247
Ni -0.046153858509827395 4.314008491176192 0.12145436544578492 1.0027250906951763 0.49057831024789067 0.0457995748326179
Ni 4.464323436945776 8.233289141153168 9.63834215535866 -0.49798437290397457 -0.05553865649725274 0.09818683018508251
Ni 0.3168601037449248 7.300947055642442 6.127899886428417 -0.5986911412974334 -1.7682911115727096 0.01819672551368479
Ni 5.469465240497896 3.990502379453904 1.4450324157066368 -0.7231268778767159 -0.013029322380132399 0.3807101870701379
Ni 0.7821646369903268 1.0611926956022437 8.17282080392287 -1.720111723654005 1.3226723967546445 -0.24949959366086708
Ni 7.684499784844174 5.598325078592714 7.181350287261144 1.733081653551112 0.5709139711841651 -0.6724432354789194
Ni 7.15728550025286 0.07172742405781993 7.93692258713905 0.29301062956962437 1.1097225771933532 1.094167917288206
Ni 9.091714920223085 0.8930815454667281 2.792146488386625 -0.7195733561975027 -0.24124403852029416 -0.030333875096850982
Ni 6.384975447987645 6.620557144258241 2.2002817354690087 0.3405953213271231 0.3012253041699329 -0.665380672205183
Ni 1.4565111290127197 5.8946824046035315 1.8768771317830326 0.2714658135193131 -1.6373934214181671 -0.3599822104941672
Ni 4.582820227333598 8.190129769714508 1.3484521331586303 -0.3290096733720527 0.058759220317079454 -0.2710341252985332
Ni 1.830872766926681 6.709588920106049 12.952337767217413 -1.2698706795725807 -0.27462287109105604 0.07493454452536127
Ni 0.9644186249849168 4.439287863990231 4.050443797695718 1.6952183028464356 0.6244011444690278 -0.10558235131820526
Ni 5.8223533147304884 6.401530485909594 11.179781367151245 0.9763059772716993 0.31320253113646707 -1.165392874172464
Ni 0.2827626315478215 2.964403780405269 2.153941471292502 0.45044159012800483 1.9405113146251223 -0.018183355777246106
Ni 4.745288453450567 8.983498125512549 7.408847329839754 -0.5889042371139988 -1.0494088679049605 -0.28598534729172687
Ni 7.350335329309261 1.9271023853492502 4.075132397727148 0.2086717610112277 -0.35825108673567335 0.2086617337088987
Ni 0.5829578841315152 3.907957889926681 6.504478090735273 -0.1729437114819989 0.4201251985326506 0.5511619853682185
Ni 5.361654477932603 3.1634148995941 5.098139615669956 0.3778328655223428 -0.12769383850526397 -0.5218629792937851
Ni 2.009905258968901 1.9301014864220674 0.4041136433566355 -2.431777394968657 0.9032447385096509 1.6625894610678207
Ni 6.01730411246689 2.848721531024244 13.005160703712855 0.6737035902485817 -2.1372415870037584 0.6418879883998816
Ni 2.829868720280352 3.481245789286288 2.512542602368728 0.2885816472639933 1.1329789766181326 0.12242127725241496
Ni 8.61342750913354 6.80101074880881 0.6411856621603386 0.2569303389072995 -0.04754921053387295 -0.7648103736584313
P 2.35888988780518 2.5098600218091343 7.263927074799919 -0.8822971897237064 -0.4380154485495102 0.004632099455372668
P 9.28272536054997 0.07667455662747273 6.363149374580178 -1.0751088437742258 1.3086485716717269 0.982543730651295
P 2.0732831856399985 8.529341943055055 10.138865363202234 -0.25456209578543904 1.9482343943009928 1.9264460947813078
P 5.588700271149797 7.432676802763863 13.038574380865356 1.4639123493754596 0.5377277142401836 1.0564827440326061
P 0.6992971673475695 2.5513675806569207 10.310339197740625 0.1452387893675628 0.056843491351605324 0.1503056623675089
P 7.553000737805277 2.948374738671475 6.048254835538361 0.541381508942687 -0.3640440392683666 -0.0006021523603731565
P 0.5225338413170598 5.637571776631762 7.967135992746773 0.3123751501391653 1.543132408650052 0.07067216970458151
P 7.521016478364098 3.2261284100275276 1.2584366521589379 -0.4442945966900026 0.18652145016643362 -0.11861013103644087
