# total energy = -340873.18308532314 ev
CRYSTAL
PRIMVEC
9.19757640771045 0.00000000000000 0.00000000000000

0.00000000000000 9.19757640771045 0.00000000000000

0.00000000000000 0.00000000000000 13.46158277795416

PRIMCOORD
 96 1
Ni 2.8829342534129556 2.4946033911776406 6.621954060544087 -0.9469038699604984 0.3569223406219208 -0.0750463875128772
Ni 1.211743866228982 3.2224443814935837 11.878890327505347 -0.8006476950720146 0.5606246734430151 1.4186077119013891
Ni 6.023989283637732 5.695828964514694 7.684881144816996 0.2972154116795913 1.386042376370858 0.8082399055969758
Ni 2.605424986096598 1.7409723973632527 13.073000600757434 0.7921255165336165 0.4773782666178488 1.350947332439938
Ni 0.2925086744865656 1.1906170338338584 13.530101739796555 -0.6794698033083976 -0.10696097683328674 -0.646033635137139
Ni 4.3790855690637995 0.2827647623231376 7.939156415044401 -0.9360949522704523 -0.06549576770996463 1.3318630621149772
Ni 1.774847070289348 0.9691577955187562 10.926012241755583 -0.31785082854175584 0.8450645306244929 0.26189591044269084
Ni 6.213891638214188 6.741556581404545 4.039161550056841 1.1288621262362817 -0.7316685967991399 0.006326713548976201
Ni 3.665887119963806 8.817274762407557 11.138032927435127 2.26929550224993 -0.6254385845946068 -0.49941647736481093
Ni 1.3304293887482144 0.42590020149711844 7.038024812419669 -0.12479132014648832 0.8696525043765023 0.8620718638157668
Ni 9.065370181226045 3.1398225550219263 6.8131220015975 -0.6992577845686021 -0.07554081065079249 -0.00493060453239796
Ni 8.368120329153978 1.6862192265978317 11.293661434280983 0.49835795419330947 0.2861768944772426 -0.6085495221487519
Ni 1.554445553230423 8.082719541508924 3.0074786319337963 -0.08226167431439381 0.5966532849317983 -1.363386072423923
Ni 2.36622362340614 3.1343683923705075 4.2138253604834315 0.23408711576053878 1.2261904650758109 0.48353528735818013
Ni 5.872551192481566 8.068923177297915 1.9307542636922659 0.46826319169045805 -0.482359264772208 -0.8531475647429436
Ni 3.7835885018359865 3.095159125282823 2.017136979047844 0.3652293178257194 -2.320199231078333 1.2380849025205516
Ni 3.443738063438153 4.235888506129676 13.695409775772854 -1.9086440336028807 0.2964417667383604 -3.0358580827127777
Ni 8.423728874500481 6.210276990790905 12.293642146962359 -0.8615131630988195 -0.08099643444872504 -0.8615686989271033
Ni 0.6227090159976053 4.731380327979961 3.337624707745606 -0.7908659330949024 -0.6401607212961298 0.38160647363216216
Ni 3.3153582956666527 6.3637017583934545 9.966727124466225 -0.3673052265181417 0.043305347655854455 0.0835348845998626
Ni 4.080394283895473 2.1987357618845014 11.193224822582458 -0.3260001971217676 -0.6173264970104335 -0.696220026183543
Ni 2.2314699353691534 6.303384054062928 4.401614112062761 0.3343817363172435 -0.7616219486281206 0.3906451867956627
Ni 7.61038721638085 4.348236898687985 4.518299161771397 -0.49047546612143916 0.4103267243849902 1.294971074184634
Ni 8.007418985645241 2.9288485535071906 2.537010655489437 -0.1962908708483716 0.21900733860928087 0.4819622864441055
P 2.523842485728837 4.987946714424009 6.073555941217427 0.9209902354185301 -1.381769717137433 0.06001237599789019
P 4.561942580316501 7.369309548157695 7.871606656594463 -0.28622317433414574 -1.386754057725902 0.34869146807169626
P 5.862433858726827 9.182206990941003 10.494555784511883 -0.4479712742106414 -1.5338980345359776 0.697432044213773
P 1.1897984495573384 6.601385521020703 9.012744409821961 -1.3298606869729679 -1.503728452931133 -0.052709928799206
P 1.7697148228028527 3.583090539545476 2.0924283373353854 -0.185276522015739 -0.19874190349202545 -1.8914089006715165
P 0.2345510681937346 2.845095425170231 4.713398146867333 1.2755209358798227 0.15524475154033907 -0.9790843113477848
P 4.164386549212091 0.8735913003867172 5.93618094398035 0.13713647197540252 0.6509130747166274 -1.991710206096441
P 7.722450484078799 5.326389923672318 2.6421582656872142 -0.1055080464368441 0.574762655506294 -1.2364288549743676
Ni 6.054856349165827 3.543614542749711 1.3174635656627087 0.15618063309104716 -2.571968337499667 -0.4996995558228684
Ni 0.321487477632981 2.452230157897564 9.227402960338651 0.23206725711703258 0.11359288032750758 -0.5859135299167908
Ni 5.520661126915594 4.78965617040726 12.522381266792802 -1.3831293164891214 0.5074367765661262 -0.9998714232964652
Ni 3.3666347826508995 8.3249101164451 4.748990927016506 0.24549792870064174 0.26525531383322704 -0.5163345932763882
Ni 1.5242591083367376 0.8558344598895357 4.480808921664404 -0.7307753955609092 1.3752481139688315 0.682875743666153
Ni 5.388777082634498 8.148215481206648 5.899847758951854 0.06111692191597861 -0.44991759930373476 1.7947745025752186
Ni 8.153402914149988 7.199292353197372 9.913795993534269 0.4241201786246567 -1.0144228387480787 0.7827685007987486
Ni 2.294390553747491 3.4423032415602086 10.052611331194976 2.103357532661803 -0.20267697688037353 -2.9992553438880796
Ni 5.557727358762502 6.867793313935269 10.783588694974888 0.7975646852713167 0.7061195446854419 0.7311314933487473
Ni 7.273029321117139 3.4109211117682356 9.37473985229369 1.1157119620075688 2.214023212040187 -1.1798049358327358
Ni 0.7468781334119063 1.629359810896197 2.3582401273160363 0.9140469713314775 -0.5812480061203216 0.015575228730437693
Ni 2.469981479849061 7.281408312981291 6.852712968095022 -0.06400581342799945 -0.538324467283918 0.3292307882439233
Ni 7.074370874054763 8.582589409602168 8.398411626415667 -1.5882778948384388 0.9451316085514239 0.1316114283921153
Ni 9.06227059806664 7.695188868397847 7.502961366573028 1.3909889217428562 -0.469752631751791 0.2573203752568665
Ni 8.526401416958803 7.3055335551982745 1.2184856895400946 0.8081979966154469 -0.7924754436738675 0.757272156299857
Ni 7.0103741392679675 1.396458787862099 13.168752886927514 -0.8236570114829943 1.1799170359305677 1.7636777811704138
Ni 3.633750788928298 1.202711846458842 3.617288967151723 1.5994629649209808 0.16409885949685932 -0.6339412227489791
Ni 8.372001706285342 5.449931766393825 7.920862436100605 -0.7045357451380898 -0.5507657783710644 0.5787815468577
Ni 0.5689050350899019 5.125597638945307 0.4673389610413024 -0.19589543518216587 -1.801311275252472 0.6795669910078942
Ni -0.0830918226124455 4.8399945046251585 10.078592644277148 0.8740874002194043 0.03401415216191562 0.8750672476341703
Ni 2.168632095176082 8.671539168458608 12.81922291939924 -1.6469283574917957 -0.07209141864961133 0.7384794490733863
Ni 4.783760524101089 5.717231724194037 5.697305175485272 -1.4586834968763522 -0.09558898755091925 -0.3940693819858632
Ni 7.331636276285502 8.357395955373955 12.77352016355624 -0.6090732558627059 -0.5533857324924146 -0.571563431842706
Ni 8.864228388605687 6.670680059664527 4.022778827435076 -0.8966570579898041 2.0699121085191643 0.009182180719900315
P 4.790824262577125 2.4013491666873663 13.270723654326304 0.9272375018798225 1.2290276774142899 -0.08073058238184806
P 0.980636370542315 8.24387947064578 5.3133404026439335 -0.5810824270767347 -1.7891437866520028 0.07004996273955033
P 6.19283838642819 2.437854346389694 3.8009857171060677 -1.954558279636492 -0.05550806036963343 -2.7432426316990433
P 7.924033760353908 0.14683838332821547 1.488339814234571 -0.6239010649041578 1.217533046511129 -0.8385290434988204
P 4.207385217669733 6.6642141636376335 3.1528509216251885 0.11062994104444171 0.4168809805637401 0.7937607381441943
P 2.802455462182075 4.837069675412424 11.548381867193598 0.6780569821212709 0.3457293001195788 0.3583181925281829
P 7.617267003334073 6.489892503043476 5.989704398815763 -1.2330496540894893 0.6977053524798178 0.24692103430041346
P 5.5574974193589854 6.95992543413638 13.324206639826699 0.2413247711595586 0.5508796782411093 -0.21841598488218517
Ni 1.2299642645636535 6.835721365932746 11.342594378864586 0.5886322143995346 0.29600236520809664 -0.37957478791411403
Ni 4.5709746000866405 0.30124821133543217 13.444378490650264 0.38260354743810887 -0.860382391928486 -0.4025195696357455
Ni 5.232455078547635 3.286183584148441 5.532683278689067 -0.5052117438903493 -0.4594905877041506 1.139628106503534
Ni 6.0638883689359675 1.645915447949407 9.298911355559534 -0.046844985377996744 -1.945438319613095 0.9879317344360858
Ni 1.3852469425466198 4.4281086498935815 8.033387422120814 0.39895550643357097 1.015487018346535 -0.031126289091159297
Ni 3.649625805347098 5.157687982100112 7.910281544508376 0.42240139616133704 0.20091808520773788 -0.04592067379151447
Ni 4.526338763075959 2.8691102964735253 8.199597740316513 -0.3196593425054043 0.9112704370276048 0.30061183895565
Ni 7.693376945898134 8.807773666254242 5.950275309658316 0.7796962896313281 -0.30992206061298233 -0.3207150374634283
Ni 6.195110187734936 -0.02995282645971265 4.0429435933658855 -0.6381588603747526 1.7248533521040488 -0.363029224850607
Ni 5.613768190187618 1.3334829840269173 1.8793848811889986 0.6297436397278638 -0.5590419023369274 1.032742977213505
Ni 3.572099436057373 7.744441888631146 1.2203730321641606 0.08838115694857036 1.1544849690107086 1.8205531542012194
Ni 6.210580510803546 1.4159944395848867 6.9790361578414695 0.026190799462754894 0.004992568118584949 -0.6230227760642626
Ni 7.584946720775751 1.9063724091009584 5.148772771546959 1.2587398597667416 -0.861928139149051 0.5660232187507672
Ni 7.1065439953948335 5.295945946646694 0.5539240230719752 2.788317412550495 1.378890338707109 0.5740535452544113
Ni 6.282146850754116 2.8663326284790425 11.386627774638054 0.4356788299965335 0.2951724131076336 1.14265146671089
Ni 2.5574136386422897 5.793093332202301 2.0120626762910354 -0.4047327752369804 -1.8561940433332806 0.8427376822635292
Ni 2.371751366666684 8.336121961760579 9.220874520794002 0.14619189730945148 1.111817254938853 -1.0013937734782625
Ni 0.050864435573144656 0.14558843273069813 9.544611725550991 -0.6486296779990893 -0.6638670637741342 -1.6651852468194548
Ni 4.978454815846835 5.422633360408311 1.422539434766589 -0.9469915445782982 3.1602405974566223 0.31392809644858194
Ni 4.924952515436545 4.376997719279866 3.48135339058066 0.518619532655823 0.576068261691595 1.0244316291343325
Ni 8.43862894784837 9.10565556472219 3.52156335395245 0.7485116364984077 0.14258566801543185 0.36672235743147813
Ni 3.4100933299155747 6.647345808995641 12.724574342366038 0.7151199484118395 -1.3038493505108708 -2.172038640078285
Ni 0.4220436578213347 5.616628636367366 6.00766174647281 0.7254208161172152 -0.5623992488449346 -0.4732878985985591
Ni 4.7980811501521154 4.561151588768403 10.085121083821797 0.32681755081674035 -0.9060945492536201 0.17402486036131964
P 2.6231947032003764 1.3071227308077513 8.940954568771176 -0.41994779241452196 1.3224520532137225 -0.32157455725024614
P 6.6208659872866455 3.759426469314441 7.207519585055202 0.044786045966438995 -1.3932910875134714 0.21444260205673393
P 1.5519714052485822 6.944519494100755 0.5719669081871315 -0.7516308988536796 1.618928272734444 -0.3645610881141012
P 8.299350052350173 1.3049613004146934 7.722949912463237 -0.1266268306933303 -1.4224962483225179 0.28523921315432166
P 8.602115863748814 3.421820239494932 12.901082266808835 -1.2855127569852118 -1.0089875266651205 0.6314436531381061
P 9.189095975470366 8.788320792716721 11.59591494068859 0.282224594697714 -0.4354651713238307 0.7726419538877081
P 7.00848863615913 5.028397654290685 10.857277835498726 -0.18718093812730344 0.8635142526892484 -0.10086489123787791
P 2.6914867060448664 0.6145618030521979 1.5946049299334397 -0.04959786553278555 -0.1648002564392581 0.03508373107701055
