# total energy = -340864.6738810948 ev
CRYSTAL
PRIMVEC
9.32123223855891 0.00000000000000 0.00000000000000

0.00000000000000 9.32123223855891 0.00000000000000

0.00000000000000 0.00000000000000 13.64256558572748

PRIMCOORD
 96 1
Ni 0.5599469222021969 0.43285751452154536 3.776889631071357 -0.40745017416814344 0.3145163648518841 -0.8087610682077684
Ni 7.984194613839908 8.558522333009314 5.115838955957524 -0.5066502761090887 -1.042749453606914 -1.3193091367093666
Ni 4.203251178904772 1.438452546007022 0.8803074179801954 0.40069871437692284 -0.37296653856897705 0.22129304931966406
Ni 5.162666962052846 8.51208395441803 0.11972563427898258 -0.7114617828339618 0.7880428618238106 1.44522248627544
Ni 3.3400305115860944 4.752225146615266 9.61914059789992 -0.11809385352165469 -0.2026288972512575 0.29027831824012584
Ni 2.073442844034733 2.1056663435911496 13.093642933032642 -0.006720349442969072 -0.0670091190306975 1.0726729806392237
Ni 5.447095040000346 4.269450569662561 10.72927790860871 0.9905514314471199 -0.5283886962274449 -0.4001541547273625
Ni 6.509184195324854 8.03323361620216 12.104297605561253 -0.30859614271270724 -0.531228222558769 -2.4434180645313788
Ni 2.232108857760313 5.789585073035182 7.818799602622347 -0.9838843038395894 0.8582517187387284 -1.6022595538295115
Ni 0.5767810674723413 9.158455476905788 6.384843619006421 -1.575557619058293 1.250464507131827 -0.09067972317475996
Ni 7.696942202549742 0.2179332041304301 2.537858322136899 -2.0669296288520727 -1.2586331589855486 1.348616370313916
Ni 6.812450483455612 1.4399439431516639 0.09745348217018801 0.18002530091912866 -0.900010033622437 -1.3190988204707734
Ni 4.6047446114745 3.997867149623287 6.113929463435805 -0.9612262001204414 1.5033114199983724 -0.4269234524014067
Ni 1.4498710553956855 0.4465746397593884 11.629032213231817 -0.726250253997046 -0.14519996570982735 0.6556626735864708
Ni 0.5225454781842266 5.98537755443019 1.5533292753194876 1.159474708915816 -1.0475731002478021 -0.03854726414557877
Ni 4.92165718347873 2.8289753162781177 3.9846254072252987 0.787725844804024 -1.1497528536423618 1.0428659245801202
Ni 7.1201163931630616 4.425217680188243 12.408690830659431 0.09914842276740343 0.8703109638961075 -0.3486228196172899
Ni 8.580455192267703 4.8844095397913 3.490859233316582 0.05646091120120599 0.17374666699926852 0.04577000714626311
Ni 1.2389408929825643 7.586988948061025 4.574133685080727 0.7461246243234698 -0.7197947281796894 -0.4928622211860608
Ni 1.304674222132652 5.712656944068128 10.348335928692146 -0.32448144648439603 0.42534942304606743 -0.1794717424085038
Ni 4.554381994146377 6.0258037382821374 12.064557464395843 0.40474151698772876 0.3953094250405514 -0.2635321604945332
Ni 1.1427550983853219 3.7213434765423883 2.7068895460177393 -0.8546953688460377 -1.2843189937874269 -0.27266729002658197
Ni 5.794674465791273 2.1148104723342347 6.4433017264603025 -0.4761860460819606 0.07873849165248374 0.14662101442707007
Ni 4.069155933137166 7.601874955810982 4.31609867597731 -0.7215219952834412 0.13513949615003176 -0.9468069393713177
P 2.244608630078842 2.545861532064333 8.928294680435727 -0.0713473413947352 0.019251134920128136 0.9692017621267501
P 7.2824176874287065 0.7334980115545177 6.375921335588601 0.5205735710584002 -0.5767058952755938 0.706681330726183
P 5.456108671493276 0.5293770092299014 2.7599180357419097 1.5674344757305263 0.4999067867376681 -1.3952656947413389
P 2.5574944297925386 5.117114100516192 12.061719149204945 0.17660573371461843 -0.9881307378207692 -0.5919728487369934
P 0.611717977708791 7.634359449867711 7.900382754927115 1.3510257510863573 -0.30289317879065897 0.6693224304617504
P 4.031582046324346 4.816672145728101 1.4716100330252708 1.7726694431460635 -0.34808365928436824 -0.5756949375125763
P 1.8348006584277357 1.6017046059523754 1.6039566156407847 -0.2686892792154405 0.004355191644902176 0.02393491354904265
P 8.861499662943297 2.1468661897118797 12.53523960687515 -0.8277774614092712 -4.265884376594911 -1.7053379077789406
Ni 3.4053909914500218 2.9396276631783858 2.4658937492918547 -1.0146812346157879 0.6321105972981437 -0.5377698803320287
Ni 7.609303977837728 8.194574823555943 7.6233156540116385 0.21831159809383693 2.2133223293184203 -1.4878932856710891
Ni 5.735130434791449 3.556842371488397 0.5233871854477338 -1.4358945240062948 0.010430708415020746 -0.9611066438234416
Ni 8.802151377818706 7.489619356980223 2.9039021767017066 -0.6731808849758922 0.04315185279712568 0.7973834224984462
Ni 1.9849004598037796 3.7126654094070037 7.0496050004108275 0.11799563738089357 -0.9494942563954938 0.4506601338967142
Ni 4.779601605451598 5.1122484173317995 3.786085026591289 -2.3508089855443903 1.4598101542816277 2.8948361596400405
Ni 2.7304592136423724 8.906614426568712 13.672442979389542 0.18394263369566388 1.27087289558485 0.8143449900534492
Ni 6.2716512363441845 7.515644237154223 2.9778037015883543 -0.4241330341404631 0.05849953889778957 -0.17663324451844417
Ni 4.2560839227537075 0.2642746419073126 10.085293553675594 -1.8273776333222205 3.034292795108187 -1.272040176420074
Ni 6.566472488143408 6.5000866727425395 10.234380137116494 -1.1002516615884406 -0.8374658923416287 1.8539885510415295
Ni 8.738506004671118 1.6816807778337923 1.4386492240054716 4.021258566086577 2.4236974461739997 -1.6889764357017816
Ni 2.8841290469334027 7.588732018473825 9.000505333809636 0.4821864866397696 0.9551206014433358 0.5253293405758307
Ni 2.5439133945441443 8.224999325306635 6.500723312898659 2.123621682227478 -1.8085620432776142 0.8460014406164655
Ni 6.8926037587479545 3.7113604369054425 4.945566143953768 0.9601576496466109 0.5109892698040748 -0.10223348945063038
Ni 8.75106170438257 6.400153742819384 13.21345245840101 -0.44726962015792654 0.6063797681909427 -1.4485579784065763
Ni 2.7215201520066756 0.43227586963513503 4.76504836568954 -1.093362390667775 0.9062233615220006 0.2479481900133472
Ni 6.147026362445053 1.0853083446201501 11.239796200944614 0.9879936980222724 0.0212095441980796 -0.7497295680659088
Ni 3.998398459856066 7.0374370639569825 1.6227696584972255 1.3754982823064248 1.4060769264242299 0.9029099808780515
Ni 1.7201681453977051 0.3637946412460449 9.444052437365402 0.16428577869668481 0.4622910332674232 -1.136838973794171
Ni 6.140958240312792 0.7160598504407932 8.390478227613583 0.320226527862784 0.03564423156617087 1.1154468812716403
Ni 8.202553798279776 6.437923375507438 8.702579179579912 1.4218262188386868 -2.386870507153638 -0.09936156721947403
Ni 4.705003784523046 3.046085455609349 8.728145455131935 0.05690905448221812 -2.4891749590515193 -0.20677171577503742
Ni 6.328939529162738 4.9159246257040135 2.498758549620468 3.3023686091093447 -0.5300421726704677 -1.6909374160828945
Ni -0.007207176701481527 3.905913194423966 13.16643989190904 1.6956548761632217 2.4435643603012562 0.8016154583019227
P 8.458300444889383 5.649682699635627 10.83903168872933 0.492694585259945 -1.1880854306739732 0.47671260800939186
P 7.148424975214795 7.624143379426915 0.44729051038881645 0.561740017994381 0.6816986926389164 1.7863469406331556
P 3.0336602531480517 2.6703093025525377 5.243861418976792 0.8314068306317423 -0.5332370254586817 -0.4217825316304155
P 8.287349047184817 1.9919659537765202 4.07141912830416 0.16167559476734739 0.5179767568655014 -0.8815186596864689
P 6.820513349268831 2.6808329736544163 9.649986419343973 -0.3201059431245197 -0.029717324558774627 0.7217179133443312
P 1.1731982426003227 7.769023290796712 12.677845137599368 -3.5828106579853394 1.780834752565675 -0.2840760460841559
P 1.71941312559323 7.609844609302661 2.401910015417075 0.636334148461188 1.1630919939534292 0.08386758534893299
P 4.9622511495094495 2.029064457749485 12.726453499036106 -0.14133559765841464 0.6528329174471595 -0.8587379143465275
Ni 9.075086376520312 4.104129196179016 9.023206262597515 0.8871617169048591 -0.5410488081936166 0.3566233213242632
Ni 3.6676531793352836 2.734290240057671 11.188595604845846 -0.07890432780638669 -0.46584326939505577 -0.34376703418688537
Ni 1.3311372002178898 3.390542268628682 11.117517481178648 -0.2550858294993929 -0.5626712715593987 -0.7345901413213092
Ni 0.3220289963335666 8.786174785906733 0.8504869320730825 0.9866952909258233 -0.7933956414952916 2.2162449022818542
Ni 0.9874074433065697 2.282676542195824 5.435007266143024 -1.736539015972093 -0.6097517699869691 -0.601787263724254
Ni 8.479981630879616 9.115456632979335 12.65970042708837 -0.1410777160113377 0.9379924264034813 -1.4610951916416386
Ni 1.3155148151277671 4.7127124435144125 4.856971560822753 0.34566579387149504 0.7998493675404353 0.7851976790655316
Ni 9.140353644062698 6.43332800805551 6.185006654979788 -0.5543866629531032 -0.4296331380230859 0.12306559570463323
Ni 0.14702845538129702 7.863764294410082 10.250191743219345 0.11730581040272055 0.5807417559078644 0.44185744800341964
Ni 5.4862442150471935 7.289380647847754 8.384775497781758 -0.2296221380106497 -1.4117158698775623 0.7280628817257525
Ni 6.99360863036882 3.8780240678191644 7.9133970592605465 0.24027576106975396 0.22586344229916583 -1.170431722147952
Ni 5.74747174616336 5.856847084258527 0.4826878894936743 0.5446478383987846 1.2233979899323382 -1.0424488916473595
Ni 8.526149693738432 1.4462078111591594 10.293220415088692 0.4004367189647878 -0.3184560662259225 0.33156560702468707
Ni 6.753232695581178 2.502154274494174 2.158294952455913 -0.35746664316116505 -0.48531551918705457 3.277915875383619
Ni 2.4364395878083944 6.572540610275669 0.1307358736993007 -0.10235715951268823 -1.426813387640633 -0.16052168366856226
Ni 3.4571238299047846 -0.02057755210319532 2.5118688626450845 -2.0911573910511856 -0.8080915529445696 0.07234107276657219
Ni 0.3594910283605379 1.6355313574392827 7.951446328913221 -0.11657998798028954 1.071642225381864 -0.2217843871337858
Ni 2.6619761210068513 5.640641104446236 2.8149254230523764 -1.8271179519029308 -0.2872271901186279 2.076650198573946
Ni 2.1358018871450684 4.25959802727577 0.5949164567511857 0.32197539223309063 -0.41562062579407777 -0.5918514926677807
Ni 4.961197850276046 0.5958867970184182 4.758745348506998 1.0856876477313366 -0.7892016580186022 1.3597163368818197
Ni 5.501670854262082 7.750390147720844 6.118117493042604 -0.11042785233596465 1.9378106278645082 -1.5220789304138627
Ni 6.604950534475166 5.918851920547012 6.547189655186404 0.7706035833014406 -1.8180895231520755 0.773317382688178
Ni 2.7821547671685187 7.590540337511704 11.483725389429367 0.4709618215685437 -0.35276872346486343 -1.6262219781823801
Ni 3.101658641711564 1.3422108240168555 7.1345158325945786 0.13568277024801148 0.09730648446265822 0.2995664284102712
P 4.363007776792371 8.830124395512895 7.57525258465591 -1.3092934043445774 1.5419227046126671 -0.0028544387296596
P 8.305432237563599 4.575708973314755 1.2310709766749324 -1.7409404874738985 -0.4219866772214217 1.1079906821039112
P 4.700371132142502 7.759366494285156 10.50371154746736 1.2792233244320743 -3.3805720541939652 1.0208122872141903
P 5.02885135324986 4.950636894245551 7.979795924386431 -0.2983217573698927 2.228983175784129 1.077935000369111
P 3.2409364925568007 5.9807542232818 5.407422011706443 -1.022958644133232 -0.4451541164768205 0.2519642531512758
P 7.376207925362368 8.594054869980404 9.911200900735125 0.16993757766582343 0.8536638422577298 0.05930455129758819
P 9.057292144338303 4.224000241679601 6.697803988577349 0.15805033930993426 -0.2795244221577315 0.302397212990847
P 7.140567176508963 6.156506055545683 4.52021874617871 0.05730680414126905 0.4214922540835063 -0.9139965777095161
