# total energy = -381171.1793199686 ev
CRYSTAL
PRIMVEC
9.21295909457677 0.00000000000000 0.00000000000000

0.00000000000000 9.21295909457677 0.00000000000000

0.00000000000000 0.00000000000000 13.48409689508694

PRIMCOORD
 96 1
Ni 2.8100077095999745 4.046267011148442 5.863788466269428 0.1292349577401387 0.15844268965234648 -0.3120295938742884
Ni 8.06035315723314 3.7565931607807688 10.58070083590363 -1.5132747018586712 0.977811101062316 -0.809070114807755
Ni 8.997799353291335 0.4414518187061114 0.12816976143152556 -0.2438233692116962 -1.0128778628584623 0.9810761449668329
Ni 1.8723311895719548 1.5248275968609868 13.151956560976277 0.8444626353744359 -0.5238666399873751 -0.14666472318081195
Ni 1.599903998064669 5.480033723299993 2.0798816465552243 -0.5751308374789902 0.1993186019311019 -1.6929788719929553
Ni 6.211957234605245 7.739585570939288 9.30506442717825 -1.049921802985637 1.27997074412106 -2.7266055373629947
Ni 8.401333975118703 0.4398165185203643 2.25386653076817 -0.9744606965328445 -1.4035721577245053 1.823763947829033
Ni 0.6894010999964305 7.710666093288244 2.291083199108137 0.912284480114416 0.5831202834423699 -0.8326620431950822
Ni 0.5027880131660001 0.13329124522452185 11.595271473905179 1.2349967505135309 0.3973524236125092 -1.5132086245074263
Ni 0.21381434766659085 6.930715427795386 4.422675340776385 1.6265040281991732 0.820798973208909 -0.727923785044727
Ni 7.074557353429584 0.7019666544941237 12.295244444116511 0.43603107112962974 0.9849826791100907 -0.3724577172533586
Ni 9.148808960866441 2.4674699016784025 12.143224174961816 -0.576154393647498 -0.07191092720768906 -0.029106173337336966
Ni 5.279928258317299 0.7330456496862332 9.29159416012709 -0.10410216722825298 -0.3172931562660729 -0.8115859392510733
Ni 5.241583923821076 4.478179732320341 6.6672653433359415 0.9671564495619474 -0.6854720436384194 0.9434555064005815
Ni 2.9626019460874677 0.33238236344411254 3.52213994282623 -0.5395789085163095 0.17356231890260432 -1.9879692509967697
Ni 5.16041775685526 5.47617349356575 8.962717327503693 -1.6237562902507068 0.011006892633464913 1.0004301240134126
Ni 0.35337777523734737 4.807404814786112 7.433890385230689 -0.0920596342414221 -0.04114176434563237 0.4841613509779533
Ni 6.872775129946575 6.319481676677669 10.724657002226861 0.15697278997503936 -2.959619217553697 -0.25013851279644667
Ni 6.0891577068541265 6.896332665580126 7.119953286585925 -0.7447701671781045 0.38587373354894833 -0.5155020700727638
Ni 2.9799315215769915 8.819325915554467 12.479827916124854 1.4893621569071318 -0.4378028183180718 -0.2618195486788007
Ni 6.042512496485462 2.9937785986427827 9.025121303887683 -0.919810613288132 0.49603650514898445 0.38532248903116867
Ni 3.756141725799915 3.5888712459552656 9.804084340197937 -0.21730372565461287 0.30102038724797836 -0.6244780204535504
Ni 3.5738725490403564 7.4156671527382505 8.324258361856952 1.726574962780846 0.5595527805350751 -0.7613000465123276
Ni 8.651318399006383 1.5798658126900207 6.07749778620578 0.04681721746385486 0.07587916782681771 -0.2442566000943729
P 2.1352506076049247 5.004810882842475 3.9124782661491015 0.9175141039444714 -0.5721401302817823 2.885578131376882
Ni 2.0419141220736328 2.8397379276247974 3.9791570554130162 -0.17692866427167592 -0.7344847260916965 -0.33568374295811865
P 7.698394432176046 3.9410273828566686 6.61636282470906 -0.6981995185074169 -0.16530984908582497 -2.1082482850952013
Ni -0.04262928163082052 4.453756178560253 4.54360095270902 1.456989139893065 -0.30998993773644035 0.10840336570676813
P 4.211427723429508 7.304982665799849 3.4253513616352227 -0.04967422729667574 1.9858408917998576 0.5478095239562178
P 0.38567103839836664 8.467519871087196 6.201834956779441 0.322048154452555 0.17408271018244856 -0.06782570139472191
P 8.99365352183451 6.1771230374091335 9.364529469707293 -0.583052663429228 -1.2979224435034744 -0.5929033309710627
Ni 2.93620681914569 0.5535145642799371 7.756470160519111 1.1456174913177497 0.39383644003945073 0.16544071823673442
Ni 5.843015086783104 1.8126680684288645 6.841493449661021 -0.40256019306569385 -0.14081340660635747 -0.1260208216782152
Ni 0.46514939131331606 0.9100910788101938 8.673065588237122 0.06588888938332524 -2.5646008413910026 -0.2887012035609931
Ni 1.496857053965616 6.430958478072263 6.243932650687909 0.08347446367557236 -0.1323634760667914 -0.4303605031074137
Ni 1.1681571101510422 4.2623108948429245 9.705030292439744 -0.4087439532789025 0.11461669360633164 -0.34054132816073607
Ni 5.1049188930865785 3.1748685166768444 4.78309181653154 -0.783292748733335 -0.2878244573829946 -1.0958707589119256
Ni 6.856302359624795 1.773715678652307 4.26619323567827 -0.6436818470755108 -0.4572107905310384 0.7661769149886547
Ni 3.7104178113105455 1.5159002397906265 10.877417993268507 0.1920999726954756 0.011086853941780906 0.8964184596164368
Ni 6.5050214538087205 5.9499130476576045 12.969219365910039 0.7009516273312574 1.5761440876893824 0.6413094901885923
Ni 1.8270587100634392 6.643271113455604 13.35262678033298 -0.6271280564818877 -1.251922322624276 -1.4600891189746275
Ni 4.184958892817386 6.766558928022751 12.828702397104212 1.1903390025948404 -1.3691355733131905 -1.4776507820074745
Ni 3.2313255281599913 3.4473233470605096 1.9418448062564584 -0.26195581714634886 -0.4573221192979221 0.22456940607809067
Ni 1.4083389458830322 1.6960965008217732 1.947170817734658 -0.4281226149158305 -1.2138399139302578 1.0874280274612111
Ni 5.4047730629204525 8.500926059670403 11.425749346931534 -0.04080135028707812 0.17672374734972143 -1.055250414287402
Ni 8.001703461557272 6.024593291633191 5.769763772716304 -1.3818501926663815 0.17285397998167004 2.6779813485973882
Ni 5.34986382851452 8.953945669436932 0.038031093897263314 -0.10560703390855361 -0.4837618015466894 2.3435199080821443
Ni 9.219315734508825 5.082881495653863 12.023391219942024 0.7246962792463649 0.1845239601204306 -0.12248966859650517
Ni 8.825857903338663 6.018687785046915 0.6867063095494952 -1.0163550227737852 -0.2048824691721246 0.8021947278441605
Ni 1.0471080445705812 7.200903870315987 10.61414111243437 0.607826013719166 -0.8432526742267349 1.0396394472230224
Ni 2.652972826974284 8.32503225039556 5.3473210518876675 0.5265506145774416 -1.4198225581450967 1.129702619859706
Ni 3.6040173502108614 0.97334909647429 1.3265656449327612 0.4778616340121705 -0.3962810449252014 -1.0179740464344467
Ni 7.634438072235444 8.777499082634513 5.097689484321758 0.35021793201855167 0.09786672784150242 0.22305836875020293
Ni 1.502228208941901 2.551095928641934 7.614239581377799 1.2186044251984367 1.7147882545585629 -0.2568141250444093
Ni 5.909320751215905 7.331055339183874 4.716939087214701 -0.5636331212520358 -0.6854887558089678 -0.2622450662519935
Ni 6.566066518770753 3.597982862201485 2.6239243679001385 -0.7749330639147299 -1.1520282799400998 -1.1976789878996792
P 4.87288131292755 -0.412919285324371 7.02346136266805 0.3734457921982407 0.45085502351633966 -0.18636975507991774
Ni 8.398809624409438 2.415435110415868 1.2529034329037956 0.20754227539247483 1.4119822361650716 -0.41272736340668276
P 4.6946105602841275 1.9781235953913043 2.8764681517404975 0.9496498081367516 0.03218506937297683 0.6431298312267827
Ni 1.8604372597702672 1.2112829702608023 5.7113508500814145 0.641492809843992 1.5847739954502384 1.2066788774054444
P 6.137636296022586 2.6354497793501084 11.324092638314337 0.1555039187389967 -0.4833393692972901 0.14022796641653268
P 1.2257657414833065 1.7974851123380964 10.279493282423074 1.2523277855928112 1.4192150064680848 2.085983303049414
P 4.348378355886585 7.141120980708587 10.26610316811341 -1.322672653864961 -1.189792643173067 1.0681936047116312
Ni 7.644701308330781 1.4924901114977618 10.085780689546802 -0.09145593921915217 -0.09522594778454568 0.7640403282616262
Ni 1.4299617601700663 7.938520990155277 8.262285551944473 -1.8577649873648263 -0.5441654994457273 -0.6415192922065532
Ni 4.04929807459132 6.353974994398443 6.043073565675953 -0.8368102610355007 0.5720606831940986 -1.1535709418368714
Ni 6.154201195932294 0.025791678140840275 2.899053720221394 -1.2421670430097251 -0.3292737256667168 -0.6040112679587663
Ni 2.7619805554123693 5.32383721992446 7.742339324322498 0.3487796569101284 -1.335072055970578 2.378254226239536
Ni 4.710843793677291 0.4899626532303459 4.880015828216804 1.0935356830208458 0.009664519672957549 1.6267071453489148
Ni 5.826054029645298 6.958989998330924 1.5693869933589288 0.1307321111109555 -0.18623734326711153 0.30910239292516445
Ni 8.346286546330877 2.6588230558078014 8.139904292522552 -0.4783794541888536 1.1342907534510207 0.8718050319431307
Ni 5.106632503422066 4.531439847102337 11.68992909772738 0.43029211176332344 0.5383247243942342 -0.883054636715021
Ni 4.44341002583578 2.6489559769405604 12.958472449478071 -0.757441849108502 -0.6717104710779528 -0.40638213791494526
Ni 6.124996116558669 1.9378353265897703 0.8105505868277345 -0.4789592379517235 -1.0294843610668913 1.583925531407014
Ni 3.571200790990403 7.43755714283028 1.3745283084088153 -1.4547412243991527 1.1426468387251998 1.6970399294362066
Ni 7.252008152740434 4.947239103345382 8.432549322100948 1.4846482963712302 1.3577093337541197 0.29952760475253576
Ni 8.261186445960474 7.41967478981318 7.6691064361732835 0.8772575704172698 -0.3168552973977059 0.643034443299499
Ni 4.955604469929373 4.625835822894818 0.9795346770078711 0.9391386241927825 0.7558876172475046 -0.5198937713825562
Ni 8.278184354933453 7.36925226633941 11.997664032512734 1.0711133494615876 0.15378873582010288 3.0982980943155547
Ni 1.1926451546226813 3.5051438764450116 0.5346565589266646 -0.14608056854256776 2.494570676145794 -0.445991010555819
Ni 8.17025454267414 8.485420650021883 10.152041210481517 0.146786850580973 -0.0947171264689272 -1.952257399417457
Ni 7.70172952325909 7.302808407524715 3.011133970416926 -0.3467518278468222 0.599242128704897 -0.826469541231125
Ni 7.02399663557392 5.231412817313669 3.968976735946816 -0.7222257062186852 0.6685693543458098 -0.3212624253264661
Ni 2.615420806934253 8.855357797393662 10.253266752627207 0.10318119807588037 -0.09649967229064672 -1.8938499060128415
Ni 7.106194653924545 3.826243129255408 13.331740081453502 0.32273643876883124 -0.6506713910194666 -1.0544950241786162
Ni 8.868541541426364 2.3593466172844386 3.674456869254056 0.9259573496158181 0.1565308173416143 -0.8036769688166416
Ni 0.635841564053664 0.26527517159632524 4.203424426126079 -0.7875615513120178 -1.026693685695632 -1.4650276939268252
Ni 7.536135801914756 0.36067535989723654 8.034579905009885 -1.4604896968471557 -0.003613942603503453 -1.0823706675429616
P 1.70181774823219 8.594207267448937 0.6113323297768013 -0.19048711968240098 1.6535499765733717 1.2203211507792275
Ni 2.1913851655303187 3.3111097513068666 11.68744804792444 -0.31775389795257536 -0.1874632452544126 0.019659168991824207
P 3.2692737054281182 4.593304865396941 13.100865176694143 -0.5522626746315651 0.5012332188585755 0.5300074627777904
Ni 4.480630379359264 5.235835037534281 3.3719677932054015 -0.196193683148875 -0.6933653303435672 0.23796588198965468
P 3.734813726194255 2.9812581876431747 7.765437133312282 0.7010539572370765 -0.053756882006481606 -0.8926859891571981
P 8.679666673212266 4.321992441903601 2.301897370139292 0.006448583838821153 0.33278148170965915 -0.03237610233786037
P 7.532072887087068 7.932873446415204 0.48229378633110126 -0.616605302573693 0.203567607015443 1.0190603375200902
Ni 2.85803486378758 5.48763441430417 11.054167686415214 0.26476988955637626 1.4013684652049672 -0.16630615156082326
