# total energy = -381167.80596144614 ev
CRYSTAL
PRIMVEC
9.26965443022770 0.00000000000000 0.00000000000000

0.00000000000000 9.26965443022770 0.00000000000000

0.00000000000000 0.00000000000000 13.56707624966185

PRIMCOORD
 96 1
Ni 8.208306700350589 5.696026449981683 1.2916530978109861 0.47696611878109474 0.34434064730216823 -1.231183290304712
Ni 5.652968905712348 9.119226359726955 3.837718457243066 -0.32284236821907625 0.6580514855336215 -0.5820874713024814
Ni 2.347864391874786 1.4794553671634703 1.8217058357306737 0.5660237329713994 -0.6955368840735892 -0.7135538894763002
Ni 7.623196850657442 6.70911623916141 10.342982947579886 0.390851646379514 -0.5195836963413052 -0.4584870861403007
Ni 4.066968131911261 0.8034055738633699 5.458387738163057 0.058856150906259924 0.49617123095463583 0.18142449525950044
Ni 4.321902164741236 9.076762073333454 1.6893184868080084 -0.3359837906970407 1.8658701329704641 1.5085832099202727
Ni 2.3208340799072125 2.0867289603115093 10.738096400745402 1.4508632295009853 2.732168633273069 0.5106342004575012
Ni 2.7982768947912473 0.748350316020774 7.5285471913956785 -1.66152888101379 2.230303437257449 1.1062022227449206
Ni 0.991009472613623 4.713702643456405 7.83257145951985 -1.2043700267666095 1.6461320868427456 -0.4372335760781631
Ni 5.2896077264198516 0.1254110070890592 12.702988732669738 2.027588408050289 1.9447497781865022 -1.2264128654992619
Ni 8.72092785334057 8.004383575187815 13.533864000114967 0.17707084627649505 -0.29713776436412054 -0.8108542032913714
Ni 6.7327816666145015 3.1437476412656986 7.429127368026057 -0.723702804984844 -1.197840196067892 -0.08671276810721194
Ni 7.667635573418948 1.2724083684982703 12.961604672191593 -0.36662542684229765 -1.958967207337465 -0.866706791484617
Ni 0.8433679805586396 0.6651746348637639 12.717845207632163 -0.29245398573520603 -0.31009715273826594 0.33376749977201225
Ni 4.1638174801407555 2.075707341337077 3.476821152066133 -1.332662160977505 -0.021191289365634473 -0.32861166660268565
Ni 6.854686890443569 0.8106943030472187 5.906711787963506 -0.09690102149412343 0.05973006887078101 0.012640571582145972
Ni 5.505655559419934 5.3090925397791935 11.751679335534414 -1.0636612640589165 0.4411632501498725 0.8422034070266141
Ni 7.4392312912238125 3.6623199123226153 2.2899596422973367 -0.12072589182786306 -0.3393377947709382 0.1457743501560586
Ni 2.6421851858673886 4.1977536845691805 9.221229635752739 1.124992101757914 0.5894837637665525 1.42405613661047
Ni 4.820757881081065 2.5341010166143336 10.9389030681292 0.8638143004281704 0.66254705941113 1.6313667556081128
Ni 6.8953992121725065 2.1172910105711424 9.475313641282499 -0.6499393979494484 1.9285346018792204 -1.4433504660637078
Ni 2.911533531149208 6.185992567838348 7.331281531958251 0.3862136333868703 -0.29903086762177533 0.38959206294079995
Ni 8.572465069913733 1.9205796764614445 7.4226831043498365 0.9681254983434359 -1.769660224006094 0.592675788341289
Ni 5.066570574070131 0.5672175629442393 7.625714488768002 2.559027461068283 1.436464280466836 -0.44573235757779367
P 6.494171495024203 7.223832334025421 13.106405942166031 0.6770550232193179 -0.019349865281521515 -1.5868424479434928
Ni 6.964866001570654 8.042546741981537 1.4910489238088216 -1.3119290421952117 -1.0919182020220808 1.087757642886488
P 8.274964784492845 3.023381180052069 12.149329893084541 0.9027644564391227 2.60103825828243 0.07619181397123008
Ni 2.1221668487381327 6.817256026340324 9.760222028288862 -0.6438985910720072 -0.37737418071836937 0.1278370489513476
P 0.6377689018966407 0.41453523287555 8.653352073421635 -1.2519308072647084 2.5042683630495324 0.4810050647371587
P 8.606002679206833 4.214096085117477 6.511924736958461 -0.37298659317363503 0.9734883053172461 0.6432830689751954
P 6.425557513822563 8.206017095736051 6.806126879375897 2.110115677321243 -0.6629779763009614 0.8227694666717185
Ni 2.560482452780217 0.1335117579904524 3.7053181308043666 0.41483746777115005 -0.5664541356405987 -0.29415708446924177
Ni 1.2924400914618939 5.5202274559950455 0.5748437075449673 -1.4898419247570278 -0.10162542355298626 -0.6353028789831963
Ni 9.196062524301448 1.9548588580993342 10.636818011686652 -0.433414202332073 -0.6479249386225809 -0.5696379326852189
Ni 4.132588014770812 5.946168071533457 9.737931290569923 0.3785224353901997 0.43194070311034 0.587807147395078
Ni 0.34143010416078007 7.472361035727278 2.1780582293994786 0.18362510245524505 0.1358498919534951 -0.1886446671570235
Ni 1.1401211318421514 7.883136496814746 8.05018771802916 -0.19102705134627102 -1.8657189521045805 -0.8648525118846976
Ni 8.425837678040248 5.951878178588335 5.147579010049493 -0.058198462717603 -0.7864109826473424 -0.07342967784506063
Ni 6.289970280232132 7.097153238226773 4.710448067828211 -0.031789119486138794 -1.0379923985379027 1.4348977073106641
Ni 1.7175835167296563 9.354193557173478 10.510224196707654 -0.49470955880744477 -2.830530298473119 -0.5305887892025571
Ni 3.1151322184111376 1.1124975619987463 13.040714682968295 1.289140583545786 -0.7194116338086578 -0.49570354728959787
Ni 8.126780090695304 8.28441983188891 3.852873415074268 0.050632477444886984 0.89432558164315 -0.784006744081224
Ni 1.6038355886932725 2.833427423934265 13.373473952487625 -1.847597045692889 1.0739366778429955 1.3389297391537713
Ni 4.704117820900002 4.389014461944677 7.587441940053422 -2.7204870831700823 0.9428443551791439 2.1961103363155083
Ni 4.371828522854182 7.72620124934869 13.619580493518313 -0.8048100539798203 -3.888456202710155 -0.6346693591642553
Ni 8.017954349097458 0.7127993378115702 1.5806725765037757 -0.5708052135204428 1.5203035836809946 1.5593835804015919
Ni 0.5420272773571744 2.561029362384499 3.1993609322977483 -0.11800617890385484 -1.4273417493402774 0.41625928781934113
Ni 6.015347501647997 4.756343053281796 9.598218133846169 1.3257559207759746 -1.8756737493244473 -0.2901911578429583
Ni 8.062912172500317 6.541715551979513 7.912142172115752 1.3584567534431056 -0.27889064522847457 -0.09924638179784843
Ni 6.393818217465577 5.141311796770593 6.75122086296769 2.867360322817275 3.404749422771117 -1.864974103518756
Ni 4.243916563032321 2.5075898052881125 8.7557706299605 0.0017190395736357488 0.010151486611705098 -0.7893230140878148
Ni 2.873472330552892 5.995769991745557 11.983866563653407 0.3460838552455201 -0.7045424300063092 -0.5691985311549552
Ni 2.7996766125920374 3.259636859447662 6.958336457074783 -0.3306364103421983 -0.3911300968518812 0.7316863374109528
Ni 2.071906783070031 7.807421960411749 0.49174959934588414 -0.361047675644204 0.5602634334488544 -0.7228939359303034
Ni 6.715975783350712 3.4472083144078307 13.47642087932215 -0.9898415498642888 0.44634582279207646 0.4622864052817328
Ni 8.377070026716035 2.5625773946542467 5.275516924903423 0.010711729990549293 0.12356233283539364 -1.6513971918964268
P 5.762601107235151 1.4026006632803592 2.034328531463259 0.5516319830261016 0.3682573060187658 -0.5779109713272885
Ni 4.463106808843447 7.8686387574741135 6.21053212369286 1.0219852244763687 -1.5315840416908202 -1.018006185223963
P 3.3159870879973465 3.348189867069826 12.293114281981188 1.1294437097713645 1.2432247948502781 0.13859505879880002
Ni 5.824077454618192 5.655332667561365 0.782760199784433 0.24362950803333527 -1.5888533077259346 -0.4010712672249932
P 0.26058296016640886 3.8270880176805098 1.5319262453844753 -0.18702821459952307 -0.13452423116353607 -0.9932338633752894
P 2.9737236419141087 3.760290888723605 4.948781076754645 1.9103198786434068 -1.6205190142603318 -2.3761911730629204
P 7.039421831184918 5.941153188551818 3.0125013867885775 -0.411080314721563 -0.642488855208674 0.8396392458438636
Ni 0.8941888603124881 7.187717760834177 11.669856096941215 -0.838054417855247 -0.23040709580579027 0.5118601024448023
Ni 1.5367232914898319 5.032458246209819 5.520104169592725 -1.2832856674269058 0.7994444187925328 0.8739537028550175
Ni 4.309174929373788 0.5143740446199777 9.887156039581033 -0.4550772891278034 1.4231253972660844 0.7000026331544267
Ni 0.9451617623970184 4.93999344446889 3.2374434530989773 -0.9835708863642286 0.6147888181902443 0.17588119684376805
Ni 5.084970837875217 2.958391633685588 5.786819006085111 -1.1354076406642832 -0.34996853501190694 -0.714055511703067
Ni 5.100933182596809 6.871659627484936 2.5363377841993047 -1.7237184671686572 0.4232904836345097 1.4380678775085298
Ni 6.457519281882986 2.187666226091656 3.9617084263264224 0.3633719529020064 -1.2342110213874422 -0.6871332333909262
Ni 3.798806302381104 8.243726049468592 8.439562328211439 -1.2726991501603113 -3.7267867785903945 1.3305001203291795
Ni 5.852841191941711 6.705927478078815 8.395197762684413 -0.8362165933155599 1.6931297957485227 -0.2875611764192789
Ni 1.3301119665771954 1.827428920301586 5.809082861806551 0.0951282458644168 -0.5276836997406203 -0.7340797773437938
Ni 4.931669294898629 4.228306465174504 2.973319484986199 0.18296947114911716 1.145094271824428 -0.08233186543069691
Ni 7.644424359027038 -0.012332348093847704 8.71273533286151 0.21824269252911446 -1.1956485877332117 -0.23864773854802773
Ni 2.589746751436468 6.288607641048581 2.412361719597413 1.2276575365396405 0.7980290265022449 0.27421946500505034
Ni 7.800024776272475 5.356543900191405 12.232482400105777 0.7547385912447261 -0.1651743519492252 0.8212579151231986
Ni 3.708807228686601 8.15225310073882 11.294930096931727 -1.3375817097663092 -1.145898255782962 0.6364627036192523
Ni 0.7870353643521438 4.178278140864149 11.429976909675895 0.0927764578027886 0.34876525873242514 -0.36001486350431544
Ni 4.332608615469133 5.508872129465458 5.292774240332103 -0.23655717456758615 0.040189684845008206 -0.5556827560567075
Ni 8.33971331984727 3.8387307034937033 9.07735069638213 0.6540793882597509 1.2699737808093483 0.4487688304112723
Ni 4.241932857010009 3.0122483252259187 0.9478054678061926 2.8305164145160475 -2.1411902872388606 -1.9844301274952596
Ni 1.1118023379255062 7.100304920692127 4.412623344506478 0.5787926026012935 0.18834384808715307 -0.5259883143160683
Ni 8.555983624550787 8.888476854991424 11.25159631696396 -1.0089677291707784 -0.10521442645582524 -1.015366947828903
Ni 8.799608679122725 8.074388004535933 6.096135319854786 -0.539270119026639 0.5995686588063803 1.3393619415951836
Ni 1.1142124480460718 2.5686768271901395 8.662144340534544 1.0917443954483779 -1.1129961057383027 -0.09634180655654376
Ni 2.352082084585776 8.321136932610296 6.15280442451273 -2.207745349451275 -0.18662480851351732 -1.323830421618488
Ni 6.670925263404755 4.292155844060871 4.658866149455522 0.8178020953641141 1.4410315881225442 -0.9229666424186106
P 0.20104026267240602 5.669385463495123 9.811777064664051 0.3142654251833426 0.44245445815747025 0.12824893967778558
Ni 2.681914924239481 3.6290603926588108 2.17766519605674 -2.3843305143406033 2.4680242931158336 2.3742849571791433
P 6.525623432097582 0.8010279075328889 10.829294040742171 0.3053753217825644 -0.06690730334551058 3.366864989020518
Ni 3.4705771129230065 5.147374150689246 0.4103203210608533 1.7672307886289953 -0.10579112489490168 0.234595422855525
P 3.311333721533793 7.400326552085299 4.202090028855337 1.4840857389995408 -0.7566766888077033 0.22760845001473062
P 0.7691291731217729 0.2495455827796496 1.3394242612968883 0.06375384531819343 -1.1042564118724594 -0.5061481396616896
P 0.7278958968206204 9.239055180990613 4.741272449304813 -1.2574180556315249 1.2470637089803942 0.36076922517183674
Ni 5.905659682199335 8.24738756292099 10.477174171231251 -0.3743528773935424 -2.8570671684213824 -0.18908792534202917
