# total energy = -381167.6174155361 ev
CRYSTAL
PRIMVEC
9.29135524741893 0.00000000000000 0.00000000000000
0.00000000000000 9.29135524741893 0.00000000000000
0.00000000000000 0.00000000000000 13.59883758918818
PRIMCOORD
 96 1
Ni 3.4485144077665164 0.8193600287530258 8.705840140398736 -2.1516420786998043 -0.06066055110485036 0.3830750877578886
Ni 5.606097196225975 2.6545588027786633 8.203308824722939 0.3524018270437479 0.33934576519073817 0.7043053742948386
Ni 5.895021181816575 3.7446577764547446 5.371880710865549 1.988487328283769 -0.0637445893468128 -0.6349946037141581
Ni 2.5159039070696165 6.610325463868216 3.366460590505528 0.6718603663922558 1.0316515439215395 1.7463071511024506
Ni 1.2503655619013274 7.758188793680675 5.073998000458046 0.1767142342680247 -0.8681797764857178 1.094729960439263
Ni 5.4533287317585 0.553324367902068 9.541202670450408 1.220444306620653 -1.2757793317475317 -0.06272874648778874
Ni 2.922911727650919 3.548099154279252 9.595122263747916 0.02676235569550875 0.04637421638916529 1.3072347220433358
Ni 7.418571173365921 8.912732607981159 2.9928050190455275 0.7946986765774313 -1.0015390408068752 1.687405748780552
Ni 6.642575758246431 1.3652903360771094 1.4443737070365377 -1.5067250736656115 0.03238381564734423 1.6420666585241201
Ni 1.9246392187803396 1.1076782179755869 1.7436705617264854 0.40660505255902873 0.9966053509506836 -0.04944514200500517
Ni 0.5569043271138012 1.6605603173635657 12.908995641311405 1.6943492699779208 -0.1625662249024168 0.21690443333366513
Ni 6.5546330799722154 8.204731331225188 7.630253334625084 0.8743717642290425 -0.7808250039191327 0.13855649225138073
Ni 0.10125904874464452 0.5846371645266781 6.471550709675309 2.8918670497093872 1.1704692602541067 1.1507676680601213
Ni 4.96941636304453 8.431970008726772 13.072521636989222 -0.42968893096168576 -0.6570798656489716 1.361516623315352
Ni 3.7822598915076506 7.415179828667549 5.59484722318272 -0.8804282548357677 -1.803302337540572 1.892925337316043
Ni 4.216314847477886 0.41471221242757633 2.394782728018919 -0.2510545968528128 1.716532233832863 -0.022787687318476885
Ni 8.069467780214513 0.34372254110308403 9.156314779522292 -1.736520504029332 0.6809314754555886 0.6337512182253602
Ni 4.900093560867677 0.752177025710514 6.935678995468065 -1.0068301140024853 0.42588369828298267 -0.3982620799109722
Ni 6.723726455768566 3.8790572314189853 1.481144245786692 -0.5193101309649443 -1.304625823665579 -0.05831750479397053
Ni 5.997393334930712 1.282188453933994 4.271571466808534 -0.3560895603079803 -0.16962570285235948 -0.21762588488072196
Ni 2.81244680403738 2.9811499429095343 12.749182471226653 0.8791316475115311 -0.4452762438769815 -0.5608396176672986
Ni 6.819696865054818 -0.09368287760203535 12.02584674162084 0.3913825791823195 -0.5881886991042128 -0.6058447216230791
Ni 1.854247910739615 5.8680855426916985 6.5579854009781675 1.5666785714011082 0.742291880840941 0.5431915655682322
Ni 0.46571432014895253 5.016402746988822 8.512247318847134 0.49315481272581524 1.1832882663956459 -0.4843642110173788
P 8.995908820966978 5.161375764327711 11.490555965294305 0.5886057320369733 -0.51494645467961 -0.3632634523486002
Ni 9.141922470103724 7.959885535358083 7.97720090516599 0.023683716770185017 -1.61816414087491 -0.40406403130472995
P 4.060155038312038 0.905559648765832 12.60459969081196 0.05100837272706699 2.2326449409064324 1.5786835662817844
Ni 4.171697759144786 4.934518032394984 6.563819442994901 -0.36262504743365287 0.7090333758981272 0.04711109455518983
P 6.266536025006699 5.33466883273684 0.038056462328934094 0.00432562395854739 0.2829342191702288 0.39680477863915536
P 6.234332187405173 3.959548242712121 9.893480691548726 -0.7979482938629806 0.20710518785505624 0.3881568731561702
P 8.386172918265746 2.300809030994804 7.438115539319414 0.07374540931326655 0.47827866694493115 1.0095932785699193
Ni 4.515840269509148 5.210647821685151 1.572038787651792 -1.100206410172802 -1.1987843051487161 -2.180116789100729
Ni 1.8303040880335764 2.2327777272099327 3.8367220999568996 0.6500458416203256 0.536021015961722 0.21671674280289127
Ni -0.016354643665956146 5.202898831333255 5.634106916027925 -1.4990125355127024 0.8144110674046942 0.35764096395550016
Ni 3.086077218741623 7.21441222252394 12.372182011844972 0.13100670492858085 0.23439076304388667 -2.023915844294708
Ni 5.712706207374243 3.7572196888717277 12.150480052989304 1.2607975136267189 0.36223141153966004 0.6804974732419635
Ni 2.7583896986808676 0.3952087284375703 11.098283305143546 -1.2827539632931522 0.1109245894667251 -0.3489372655339152
Ni 8.171105916256948 3.4839051802489767 12.916461245325491 -1.3681791229371922 0.420761803675385 -1.8067409309084757
Ni 8.453897607324464 5.47237601020141 1.1131164482549212 0.2503886811340398 -1.9018624919046727 -0.5276469329654139
Ni 6.235344945137016 6.493096433568609 11.868603560422581 0.8363893714479983 0.5021243632142772 -1.152548414109628
Ni 8.332310931371333 3.2833977320548318 9.597148708347136 -0.999999207123581 1.034008217079174 -1.569199280940433
Ni 1.8594789437949117 5.560885461151243 10.727688306131883 0.024348346937377422 -1.099933101906757 1.4519281804303898
Ni 8.290025973228072 8.257413315991675 5.465875778006942 -1.6752315753118632 -2.4141568536734166 -0.5976269616989772
Ni 1.0630890037085017 2.8143515318816705 8.400953606337444 -0.09201721103926087 -1.2543185907705947 -0.8017432421290386
Ni 8.915148360369038 0.8013450198881682 1.7386792456389093 0.5941004366029574 -1.6582093297222538 -0.5207736028843484
Ni 3.8895192975295787 2.88141653471139 5.365625770452005 -0.8782947534325325 -1.3930874561430975 -2.0048344021832243
Ni 6.933450928458011 1.9058149328655418 10.703345884281845 -0.3845082206599894 0.5875055569942591 1.0671312248853881
Ni 7.209580717748177 4.225671242303256 7.358031489390083 0.7817449446302408 0.5121156700990341 -0.160665151224962
Ni 7.0219046312758175 7.435555770923794 0.22492605915795533 -0.09113635109620433 0.743743525685803 0.34874211880397354
Ni 2.2857942007685885 3.731287516123356 1.7656594832694077 0.8698368524731664 -0.9550213568613101 0.5540747881396393
Ni 4.798669125998016 5.48228988634706 3.7309223658585724 -0.4350046867476443 -2.282624101038037 1.7589718910543124
Ni 2.0138083559591724 8.381118420961872 7.166832120973551 0.9351600991610087 0.7512187510169256 0.44960521026963857
Ni 7.498077300993229 5.438304610176947 4.035182662570082 -0.15568492440155124 -2.119781996766414 0.7246016626500295
Ni 0.22371818296401472 7.095083345917944 10.332954365952085 0.694726729467468 1.8205955774033806 0.9064416481803936
Ni 2.4751798966231418 4.570659266003377 4.3511928072420325 1.663319654365626 0.7142848541050536 -0.45708274959360634
Ni 5.978513300883887 6.264975077309914 5.599240175986528 0.815846257189324 1.242000435524874 1.5605583174359834
P 5.601497975333663 8.649034652133242 5.567567803910337 0.7381323501466126 -0.9972275579157147 -1.0537098092731594
Ni 3.3744158489459273 2.8956601824445514 7.482556091901091 -0.4812025254599455 -0.2028546401088184 1.18495562679574
P 7.400787519248979 3.033190824157699 3.3308719121543677 -0.012090098395314662 -0.038419737428778994 1.114784307986977
Ni 2.9359289164794644 -0.06677697081424089 4.573751429059865 0.10796293573523986 2.0306917295659606 -0.5920055017471417
P 2.9486952387138827 5.350910121867672 13.125408031573146 0.09821588365080504 -1.7619543707214043 0.8438728243092369
P 2.406981348442186 1.2409069621672386 6.3404171661123785 0.28946636386179175 0.021509334826685537 -0.12860323769341078
P 7.87034474396573 6.372262357397855 7.142708045973955 0.18213874771770566 -0.3774950225669499 -0.5593874586018043
Ni 4.315527939777102 7.674594469704644 7.941041737597076 -1.051441324953957 0.3151992498515217 -0.29441753721948005
Ni 8.621448618134705 2.892315294522869 5.352896613638937 -0.8464022755993101 -0.11615627017930963 -1.1212622024018368
Ni 9.29962464425568 6.715958882705993 3.503441183982666 -0.050554315908783905 -0.002777048524504895 0.16017792717589832
Ni 1.467328000399079 5.874013427397346 1.611516827347441 -0.12061019218560519 -0.15354011014440652 -1.2759850200004348
Ni 7.192196591910771 0.8952629687802551 6.259980044680202 -0.9039013982570433 1.0172384538200028 0.2911864318766921
Ni 4.446378097002223 2.305919276430707 10.991722609043036 -0.2974640373552877 -0.7261031868962204 -1.0872459933573921
Ni 4.990814354387957 3.079248072568189 3.0792387812128514 -0.2713619409515972 0.19353850491421506 -0.17590690787538094
Ni 0.6827706013356177 6.505751259538972 13.022260979423818 0.0352379972666877 0.6565962411443337 -1.0976386494456258
Ni 3.5836757538684725 7.408759502128988 1.4824227362812017 0.4708810889292793 0.126272275567389 -0.7952013272454627
Ni 2.376951687989754 7.886009969065607 9.644418478629236 0.1477471576117133 -0.44281261282783735 -0.1432508124032565
Ni 2.17332234440204 8.68480637018456 0.15371432444088473 -0.8665527824052559 1.2485989146779979 -0.1679693981958591
Ni 4.753327311948552 7.447012012055553 10.22538741606847 -3.1906917148576275 -0.03468958096238542 0.1386973887046192
Ni 5.543073932968289 5.618036587835311 8.525465200950979 -0.554186116906523 -0.242623178256008 0.4558077395359247
Ni 1.5683900724105577 3.4206589244631775 5.969998702852139 -0.6749130371756505 -1.115800407956317 1.3898090425021419
Ni 4.622978887911682 2.556144767038516 0.7659365938305656 -0.8377091187006863 -0.5140337130573535 -0.597632618125932
Ni 0.423259330203007 0.3903772236618078 4.0328709733619865 -0.5758237497809567 -0.049483708552424455 -0.5186483290112294
Ni 0.7379166535377442 2.795202048530043 10.893757345765714 1.4986024445584774 0.5133346301077999 0.41862316006582745
Ni 1.0413936889942603 4.22830998721925 13.41057552220059 -0.29066912592064137 0.18429616038034066 -0.7269488227259674
Ni 6.5571231632028 6.223628546055792 2.23116103138112 -0.7179278501742796 1.612663779881971 -0.2739456425183734
Ni 8.956987333456075 7.567093488443929 1.4303261069010085 0.9561742395188307 1.8438296082306567 0.8679591758344795
Ni 0.46477868066641553 4.287105683798144 3.445660103406681 -1.3898818047216064 -0.4755895501485422 -0.9178596602093482
Ni 1.0119586752834608 0.4837702109772974 9.12847787892963 0.7497604213038442 0.3739469002043754 0.4532734031498452
Ni 4.693425944084435 7.636537078240177 3.5975728340475266 1.522723248866081 1.7237346651185734 -0.05669950957457332
Ni 9.04707631481337 8.756749334566733 13.09966540247367 -0.4223540878631694 -0.38937300495145843 -0.04541210958621211
Ni 7.816352678096585 6.073833315296477 9.447697257735328 -2.034945105525676 -0.6384370537368037 -0.25209203697839166
P 5.766103626501757 8.400360817866881 1.924996935960853 -0.23844564983955066 -0.6207962007265889 -2.5416609447653777
Ni 4.3570974635593345 5.385371758816333 11.132403020215769 -1.5331737547754434 -1.4988855230165348 -0.5363231205831731
P 7.795400671809384 1.305063770776162 13.34649769011204 -0.10562297474815359 0.7979233541623162 -0.6778849753197809
Ni 2.8871678836656147 5.706861944866638 8.723219620558474 1.1457581306606721 0.22357927425067947 -1.1392267573000574
P 0.5299064359081606 -0.13936010957920103 11.228941131313173 1.2695778309225103 0.3899057375264769 -1.4335242240019055
P 1.4695579256802 8.419807624589323 2.485609442990052 0.12977334674211197 -0.1995281468387467 -0.1476222019980748
P 6.624346119073266 7.9962519001510355 10.154605871103549 3.0291068800318732 0.8010729555348912 -1.0415883434192772
Ni 9.086285834339751 2.904254686132206 1.286333327550278 0.37956707460463013 1.4548402118708623 2.094878548656515
