# total energy = -340868.6334807189 ev
CRYSTAL
PRIMVEC
9.31387258082434 0.00000000000000 0.00000000000000

0.00000000000000 9.31387258082434 0.00000000000000

0.00000000000000 0.00000000000000 13.63179398270522

PRIMCOORD
 96 1
Ni 8.398011346877539 4.985911464234391 8.59593672279565 1.6624930446992725 0.18325100694527796 1.7483622338592661
Ni -0.01330020972636364 7.623935415254231 8.716523428206875 0.6655606494264731 -1.5202657884645236 -0.13221358075248843
Ni 3.2953318648984546 4.987010501172564 4.2721083947975105 -0.4704512004807124 1.2096047928029878 0.36407772071977945
Ni 2.9057791535503035 1.5027187938872286 0.7156444220019378 1.9586486476557816 1.4100909326796296 -4.266396797454956
Ni 8.601472888524887 6.024734217616722 6.398191626144054 -0.03567662746600307 -0.6566438065528175 -0.0867392504697732
Ni 2.6248541355064803 8.365608384946151 5.756720089434722 -1.0288675534184992 0.07829240525400064 1.4704095270640287
Ni 3.624139500731659 2.6674557876692164 4.214964062335934 0.8324393856613147 -1.138460054337362 0.05718236274826281
Ni 7.691339909504717 1.6683939553806155 0.11862427250552188 0.3693891056303638 1.0185939394066328 -1.3991956259233644
Ni 1.2025047461912348 2.375940896755032 4.193371712049779 0.35258668936104437 -1.0168715573988873 -0.6953720763609509
Ni 7.11245480087539 4.546687871604239 1.2803780329714354 1.7584777250267132 0.042282819928611055 0.6797348840443261
Ni 4.889382491122324 5.910490259280884 7.7919464959348534 -0.38623214532963157 -0.3051032990681003 -0.32614032224405765
Ni 1.4219488928038775 8.988603993060114 12.430028602820528 0.7598016075899302 1.597350032343036 -0.17240532248002563
Ni 2.737440224562701 4.221168032713196 -0.041356387428552153 0.09454023457143072 -0.5269717612752602 -0.2865173085357969
Ni 9.172897585395939 8.040703261630696 0.5687134286278135 0.018212409242968634 0.19541798132511506 1.4019595618217469
Ni 3.8668962698548675 5.888937958645866 9.912467482709559 0.33997002903829837 -1.7672012209426404 -0.21758037635476718
Ni 0.48309845114414407 1.5192322895768944 6.234937140076355 -0.0427373909675264 0.166555548567468 0.5719879209746342
Ni 2.5373223630916586 3.7378711960878395 6.355482864449208 -1.1587959376812365 0.2776796556395089 -0.782337069688285
Ni 6.72486731659465 6.613482717072533 4.860988219853562 0.9691020033240924 -0.616575477777022 0.35468265265812465
Ni 6.449539935837622 8.703040666582307 12.951090397693424 1.6511789052380337 -0.05641180313082542 0.3305528494894565
Ni 0.7526130441629201 1.2242805797628302 1.4859333331247269 0.26715253085593993 0.32106213639020187 -0.09389745878110925
Ni 2.029492786676917 3.297371602944725 10.465046490252652 1.7920085097943075 1.4315599011866829 0.0957108578407642
Ni 4.654328294438682 8.134447386907903 9.797497042329843 1.426479401339982 0.6633423016189156 0.17004016468195876
Ni 3.9153749754751215 1.2114926330161233 10.30859392516756 -1.8684407219111177 -0.891929827717464 0.8048113395314009
Ni 2.380243905784149 8.570234160638176 1.1288506435889354 -1.1769078167905989 -0.6317071912121379 0.1933040203059058
P 0.6202834084834877 5.635405039205149 10.178069317950992 0.443383654839959 0.4393938169542755 0.7647018731050249
P 0.6167199209195474 7.760784141801473 6.427772484751149 0.8102996163394818 0.21671108637593647 0.7525066165904137
P 2.271131891117238 2.2857453568459944 12.370062167034659 0.110040644199875 0.02800496985335822 -0.18067861823241144
P 1.1620080291812704 7.084382789590194 2.360808648335968 0.06435265524445692 -0.26881834859413706 -0.8073976122013387
P 6.128704974742351 9.263158322411478 8.462563002024952 1.878948820531293 -0.4839399789957666 1.0184394161066395
P 5.4112015038178765 7.932802050370247 3.417135893426792 -2.9661811870419306 -0.8069237578887134 -1.0775529344393442
P 2.7258723950948136 1.252632007218748 6.004968317699853 0.31784645766638164 0.6576308530564351 0.3582312892413314
P 7.815037448283314 5.081676699813151 3.612548386582877 0.23921672367762029 -0.759237250446028 -0.6692524964557636
Ni 8.354524876840848 0.32891753952702146 7.828725115099744 -0.7965308446901637 1.5188375406584294 1.5586847545623541
Ni 1.7301635568548759 4.890723688741788 8.40979432679688 0.7313806332450759 0.6220010196679675 0.6490621375508177
Ni 5.8268982548732415 7.912702713822983 6.781054182977886 0.3613911750265518 0.843087095183148 0.9055407336326792
Ni 1.420505242588481 9.421913276743318 8.088042880661641 1.6661224139217432 0.0373136488487938 -1.8264641203690155
Ni 2.548275476983958 6.7804618206959555 11.430872700421117 -1.3984296942916175 1.1126382081782515 0.6897832694192636
Ni 5.720775993233055 6.191173116643416 0.47204009049420603 -1.033701998692665 0.16706565543466712 -0.6912588255235256
Ni 5.948630566584426 4.627774444347742 10.043523912037735 2.0591289018607313 -0.5793559313039311 -0.8745429996995842
Ni 8.095459517219838 3.0064527998614134 5.008129706742962 0.7905036646594773 0.6697651744261239 -0.42158198558383525
Ni 7.633519389909994 3.2481105320464496 7.482164307166105 -0.9196000399392227 -1.393863929297806 -0.2453853143821774
Ni 5.510720229956668 5.798071819927096 2.9588486668555194 0.5938487256034676 1.427792720834767 -0.5536886084448142
Ni 2.854916096606556 7.35595667978719 8.294251083267186 -0.44514331784354305 -0.04319299044770626 -0.4071043607929504
Ni 4.641456522840759 8.204869575802185 1.3340138297159803 1.2950152971590085 0.4398522446479328 -0.17911950127540763
Ni 7.294550319334868 7.253215353812737 2.0102670913567766 0.143973549501894 -0.08349426116991428 0.37300819044018985
Ni 2.979386686790816 2.4789802666449208 8.379163794775108 0.3719941473533787 -0.14342101943253366 -0.4736054298389779
Ni 4.4352287611032635 6.940567286519618 5.385935762273964 -0.4967150192732478 -1.2971773378073337 -1.1734823360488176
Ni 4.176861941909056 0.32830375533866896 7.842043952570823 -1.7900549856123622 0.26750965708504254 -1.0291634873923632
Ni 7.764612143340363 8.24150103578383 10.56448977402535 -1.8450943338756933 0.0136309605198733 -1.1539972307410127
Ni 7.972907584741201 5.370555764850193 11.139860758614232 -0.23260101813331552 0.7715849733781034 -0.07241357787572045
Ni 4.807122370461788 3.0716964757249827 6.6428139639004495 0.19060230510402656 0.5145078244802945 0.0869649933273341
Ni 9.217408581391942 7.386524808864168 12.03191178583975 -0.10650589157373916 -2.1708837005382353 -0.49671810459704135
Ni 9.112869678052512 7.519713183574953 4.002307865897363 0.3427144245526549 -0.3063870508765304 0.20784566556550654
Ni 0.3484189254689404 5.012456000452973 1.397299729610025 -0.7152086514709037 0.8348179131958203 0.2015372068489755
Ni 0.2931485441256721 0.4666594664333375 9.94662890374202 -0.1637820995873889 -0.9544775685426982 1.7686911752246055
Ni 4.631686270737848 4.951757494299814 12.164780694728675 -0.3483572246607291 0.7857399247222469 -0.10004265244689868
P 2.9434630811083338 5.980884506558095 6.630831667112657 0.2050529333117178 -1.383330890976966 -0.7532859179585994
P 2.585204980881039 8.715595766520078 9.957139608697345 -1.285339207521825 0.7187565167231622 1.14097587878068
P 2.786775806439836 1.2169133067281286 2.6215579560791973 -1.152818637051879 -0.23818673975120913 3.5400758381209743
P 8.99888650814268 0.42122080875053797 3.7578624917157577 0.9245782098801044 0.9639852509228172 0.26968352480790975
P 0.34261265744133873 4.063651823404889 7.036500171800813 -0.09899055703330048 -0.8000020910682158 -1.6571564629777074
P 6.373203437996392 4.935579298015014 6.636324989029051 0.28793475770861376 0.2798046724023117 0.199936695131075
P 5.94485844827968 6.682843124518072 10.709082985437767 0.7067294103552989 -0.5686714550068915 0.5025072004749926
P 5.672930630933103 1.1105023150448623 0.5000357280260714 -1.3964085500965306 -0.5737002756800507 -0.5758605165561631
Ni 7.9949907761005905 0.3368538901627599 1.8550830756867625 -1.5570374487669185 -0.6408957996899414 1.5155629836722158
Ni 4.997926359575433 0.9943955822375449 2.5594921734639717 0.012432569336397943 -0.343248442679254 0.5387350724587754
Ni 8.930010422059727 3.0930997544022825 2.5209821054278403 -0.8774568309122694 -0.4542689342938951 -0.1340938284943368
Ni 6.374917190510153 2.996142343161775 2.750800974459388 -0.3384574490485138 -0.7033047009444661 0.08683001041136659
Ni 4.255843579499787 -0.4481378998634168 12.372570392860506 -1.3404153225603623 0.334750689620888 -0.18554185986198368
Ni 6.984128267535167 8.897626087873055 4.095603993914177 1.591667380135962 2.5915925394884978 0.41453227782590546
Ni 6.2995027660323055 1.3547027343834674 6.748337343548056 0.8683936922687367 -1.2478679500492444 -0.8246461148691411
Ni 6.753665809923723 3.978485774568847 12.667140233907917 0.8244291137623285 -0.25203624403979175 -0.2871523710166345
Ni 6.3781025348563825 1.0382452932961723 10.870932939553972 0.44097555961909857 -1.7098080277351522 0.8478575199885978
Ni 5.696299136677814 4.284651386701218 4.669802361973262 0.4132804076966753 -0.3652691699247193 1.009052832685417
Ni 0.7116198977563063 4.726967184954026 4.174382589087517 -0.7844433173980103 0.7690218406366175 0.34737634880469853
Ni 7.075283136297017 6.691877580704748 8.69326762031769 -1.6688058742911775 1.4896740317205956 0.29753217158906176
Ni 5.556488598720919 2.0862980941846843 8.98356984505094 0.8344368757073177 1.5192473745023385 -1.6584528131916279
Ni 0.6773280825108402 4.766783989281899 12.375146609954562 -0.5393889039926905 -1.3436711104934989 -1.1845524778200502
Ni 4.9410558549611645 3.2433138877823895 0.684654374507169 0.5351188158624268 -0.5127389055053299 -0.5018276579094647
Ni 4.6930833173178135 0.08163702259982489 5.0332399066185065 -0.12970084163296372 1.0149532573302522 -0.10621869935062353
Ni 0.5574231525561761 2.543096963953245 8.694058368080832 -0.9814924065686452 -0.12309130673624609 -0.7128710044766626
Ni 3.0334816574425814 7.624103064956665 3.467301341330971 0.23225957563349678 1.2727510864441693 0.9467706868167436
Ni 4.953471246813575 2.5060929490773045 12.029035662055785 -1.105709085158586 -0.19514158773527682 0.8822305981518289
Ni 3.208936384911235 6.082983175339885 1.8260880596509483 0.08131756523356963 -0.6807980352015177 -1.391744826072274
Ni 7.9750963447451895 8.39327989971998 6.10472641035823 -0.11828025850084792 -0.08646979885847043 -0.6130209276565443
Ni 2.1631095995161416 3.8265299470579066 2.324765825087311 0.4732287632258495 -1.2894285470998503 0.43603261379152647
Ni 1.4984996097093275 6.382209952565995 0.0116544484808115 1.9539964935957508 2.2943388183718034 0.3660746965451502
Ni 0.11696826600037659 2.4067605003856603 11.136520803986869 -1.5614744014923496 0.09010328184599967 2.053539580698412
P 7.58525490335396 2.5186759906321488 9.950036849637593 0.5387762101093561 1.5195911309950023 -1.0478631206843954
P 6.220595639420433 2.098797310888312 4.692240411869469 -1.827946104231181 -1.671172060530509 0.2091170760787624
P 7.813193301556549 6.176093957296788 13.635201773442157 1.1530088986858142 0.6303375645581208 -1.107584447804428
P 3.7818233597423987 6.875025566740613 13.326959167774085 -0.8258540191343132 -0.28825897381725196 -0.3020400867617443
P 8.382708654594333 0.3700904436701329 12.077769567778631 1.0715465803442643 -0.5494218627486602 -0.21073070042278544
P 4.344250855916204 4.245281648246499 2.4118728849226354 -1.539347230576007 -1.3251920778527049 0.39775737236041175
P 4.261459844531298 3.48184215885534 10.126528211099625 -1.9241192464203445 -0.11941565765687176 -0.14771476171188108
P 9.15159675931457 3.2323421461453754 0.16867329700523312 0.0015341772563392934 0.4328290192525643 0.7146090702136918
