# total energy = -340864.0044844531 ev
CRYSTAL
PRIMVEC
9.29542157907376 0.00000000000000 0.00000000000000
0.00000000000000 9.29542157907376 0.00000000000000
0.00000000000000 0.00000000000000 13.60478907658917
PRIMCOORD
 96 1
Ni 1.066008237132612 2.7078213612925404 6.647816844631552 -0.45049635462534027 2.4339831443707243 -0.7357275973598619
Ni 5.69069424582567 2.444454182922293 9.013485823243935 0.016712941879306702 2.029266824193976 0.020111168927578266
Ni 8.952606389438193 4.284473580487395 1.8527680682012786 0.6240856701111381 -2.0184429941055946 -1.5241543248856526
Ni 7.517951029622292 6.476361864863894 6.568664471170982 -0.025003721133189195 -0.14495828201266647 -0.6064049650019234
Ni 8.289991560689218 2.4113345959906876 8.818814598648778 0.0708968841208779 -0.5226777618855966 0.19970581006719154
Ni 2.982519658514774 2.50103541380994 5.278563141198499 -0.1990558351880185 0.8245669248917735 -2.4121506218766653
Ni 3.6967798493159525 1.143727256592381 9.583689289253854 -0.8030154239732428 -0.0917243623891904 0.4612785328425088
Ni 7.507967746892978 8.723660157014546 7.358598688694081 -0.5520670136809911 1.2299193359906238 0.5108594290944299
Ni 6.38372369383937 0.4627995178759758 5.2538977401535885 0.5847303082419673 0.12352428050860662 1.594070847371132
Ni 4.846335335211201 4.149466878103269 4.135488423197922 -0.8896158348723067 -0.06725543071354868 -0.533013853704282
Ni 7.465022899398164 0.8224272930432005 12.96555420007348 1.6848575284374017 0.3364105938218142 -0.670341101534252
Ni 1.7434120815448435 8.173157407407334 3.2375999685859678 -1.943601266404356 1.1960442805097335 1.2024784661708516
Ni 8.602754609100035 1.6786694705488752 5.648585986269068 -0.4259016960051117 -0.8630841071303653 -0.4267563306959231
Ni 6.6487826389291085 6.793475170553408 9.106896443798075 0.252054755982553 -0.38334325381761075 1.22524147089898
Ni 1.036485978335312 0.9313733516099121 10.0178319520775 0.8868549842977177 -0.05247210175678705 2.0186471396966006
Ni 1.5509410832271808 2.9233357095971386 3.136352378135101 -0.9381531203510618 -1.8211267673165024 0.7347024985294573
Ni 4.949207765346503 6.776864252269158 0.4528450509534227 -0.8621662233017862 0.2348651315771439 0.3432085905802541
Ni 5.110790077901122 7.69236102389614 5.315867526905465 0.06679468902704626 -0.3577196397122355 1.0789246179758902
Ni 2.7323984558328624 0.8597344673766275 0.5023087775712038 0.5354538306043424 0.010512726605865766 -0.3248599128697373
Ni 7.309817246017019 6.0222898182677636 1.0616914433714453 1.0765772007896361 -0.06917270234091959 -0.09254068764289868
Ni 6.383760875525512 4.093759416839975 2.0395484094548015 0.8044799243339112 -1.1705186254348035 1.0172037439273256
Ni 3.2207706078956306 0.4637439327040003 3.747153597702076 0.19502717364459962 0.7254596397749506 -0.28795352676169117
Ni 1.5162226837914392 3.1578034224129756 9.258439701094165 -0.3266560855382116 0.6267539609719206 0.13456176926969082
Ni 7.183269377230355 4.415027775955934 9.233788243181559 -0.6955551389060344 1.118053465656552 1.0163794482538173
P 7.294173051572479 5.514908529164542 11.234236391488702 0.9452349668985075 0.15403838993706373 0.6597335012217347
P 7.240287492930178 5.53356444018664 4.508151167984622 1.1976157387619115 -2.266958369476322 2.7504118957539725
P 3.2834031582030003 6.609658209685457 12.201400834179573 0.9102826191930388 -1.8336878918109647 -1.3157178198136825
P 7.201925288252452 2.100821039591503 1.2666982471721175 0.9155402680475522 0.8155397816924987 -1.1790888836023177
P 2.880204953671612 8.064865746516734 5.417807626260739 -0.2231262458736609 0.9043140603144296 -1.1957753431190632
P 9.264700167498441 4.792979615596432 8.73273713614413 0.5823160423735197 -0.39634815071771096 -0.9650771984354152
P 8.49804168550067 8.473724862763348 5.5540459719983435 1.049047885021116 -0.41245585491285097 -0.8251521079712821
P 2.6260123563570748 1.9489245562770565 7.805720548607989 0.9778231852471739 -0.4223165497570146 0.41360436669499734
Ni 5.940397154538477 4.740423302233733 13.357780089024159 0.9889712314441933 -0.030542905783863525 -1.2298054361205788
Ni 4.568634616832945 3.041052927924912 6.817972324468523 0.22915111191150211 -0.8986836015015297 0.9072083511430893
Ni 9.11878993565297 4.011188187338584 4.454847502730454 -1.373783356497847 0.22701375385352515 0.47314751636595287
Ni 8.188866669802623 8.768900973628671 3.331390771880917 1.801989532266419 -0.5501911368145169 1.6803575836845193
Ni 5.377010950682821 5.128163220751296 6.3897341134043355 1.4077818249304785 1.147161695876418 -0.22245338817635235
Ni 2.468640869758117 4.916552949491681 2.9918699230375085 1.5854584231117728 2.406571585126991 -2.14973894813982
Ni 3.6329295987874084 4.1757543302061535 13.08293678322597 -0.18472939126301732 0.4923701120409908 -0.5411285123916164
Ni 6.702863401423659 2.9703891334107198 4.993787677489441 -1.200975142152448 2.021712923106118 2.251177452492981
Ni 3.635457953445112 0.7064250799887587 6.383503392348973 0.48780588970907607 -1.719057571357878 -0.502641926280644
Ni 0.5629363054533294 0.9126681748536757 7.901757125745958 0.6240941547515703 -0.8646943890402786 -2.277263608057072
Ni 8.338374229782401 3.203676327691526 13.247092068461662 0.02373205350961719 0.3329313770239621 -0.20877820468210495
Ni 6.000715144883464 6.395315084494355 3.228905960823652 -0.4083806564022127 -0.20233450593929023 -1.765498893539553
Ni 2.217552943236495 1.8608690280696183 11.790359152956382 0.606536348373465 0.3753494369788568 -0.5193330137830797
Ni 7.806666822520322 4.054216693627218 7.041104270721606 0.5231739847957247 -0.3821453768547677 -1.233626609638882
Ni 1.2325171231011376 5.250862785022191 6.642102949013573 -0.47998356545117987 -1.4418869941443038 1.3426727511359715
Ni 1.9317187310145243 5.88589809807482 8.848840669293311 -0.7520888123267047 0.21103074816170753 -0.19275020468496482
Ni 5.214722186091491 5.858179151055441 11.285852937734147 -0.8010500727167559 -1.4097109236323915 0.17248734067087068
Ni 5.29796268594345 2.554530564747743 0.11295424433289429 0.3065960815635429 -0.22107244866842568 -2.009099605217482
Ni 8.805961819291403 6.780935646901784 12.870279847501436 0.018874725417315878 -0.7152973545299681 -0.13095708263756803
Ni 5.298892228097017 0.505282382920466 7.852683806832674 0.05315550097705684 -0.8438340006515017 0.1707222783506479
Ni 8.901630297736558 8.250876426867103 1.2411562878763929 3.1081454194232796 -0.09862880281850755 -1.301620718290668
Ni 7.722487485093259 7.821093316743688 11.137750845490562 -1.7738554930343644 0.41245534069221873 -0.2127356466679562
Ni 5.292961749157258 0.7362754671662681 11.641128596538367 -0.96499852267868 -0.5038739989155322 0.5534901192807629
Ni 5.989160935914621 8.760934797372599 3.2192601018960834 -1.96520701759959 -0.529396825776985 -0.00702502516758145
P 3.832455822050648 8.639304206578306 1.426026420004335 0.01289228258163586 -1.1037072242372088 1.0568889783320894
P 0.8188085854393625 0.30596623618393315 13.387098778089829 -0.6985972681664678 0.35798137801405444 -0.611430957461605
P 5.426880887221711 7.909502070969481 11.193231498468382 0.5846503469336511 1.8356450155373356 -0.5745880776016428
P 1.6554309167096906 8.199147406021078 9.0012688507196 0.24183179270296418 0.1596585643373186 1.3157802976205015
P 0.6285564042422653 0.9071615671359425 3.4643097225881316 0.11290253912870234 0.13908948193671528 0.6651808974895511
P 3.3950318754249076 4.832410793750761 7.419875036999397 -0.7330153406350214 0.6609745727176874 -0.7152595593134973
P 4.408651116782462 4.666227247535985 1.6782455993268484 -0.8721870978728977 0.8960878157498955 -0.3458372864523528
P 4.25466316362249 2.5245156486090523 11.329143574910084 -0.45360558967828335 2.130168482207061 -0.06361551996811624
Ni 7.32025600440158 1.7330848682187099 3.3613220292257866 1.2090862012953565 -0.660401730933353 -1.6954170491208027
Ni 5.51901710548331 9.30917875954664 13.79416759614867 -0.282300699351288 -2.7492052770403816 -1.6244080649020927
Ni 1.9620311006423568 7.602520774753852 13.348760741508096 -2.031791647498359 0.23705725413245626 3.2485045121010376
Ni 3.8934709690108105 7.2664169228669575 3.1797387581528587 -0.7131545971553523 -0.0246098281288802 -0.3150185012992832
Ni 1.3038687788089702 5.55040774400928 11.36817504993838 0.3481093703159811 0.828528737752999 1.4242445984721923
Ni 0.5678712447466187 6.675367544521135 5.006154306300502 -0.02051277524137112 1.1319914158938826 -0.1972951437431699
Ni 3.115351232259553 4.625057825554484 10.421526532118895 1.4004798919524268 -1.2559437850788435 1.0194688858124183
Ni 0.619165239864774 7.546999221921272 7.243298279965583 -0.22350676914153117 0.6826158051365468 -0.05862063785668614
Ni 3.71337217675713 7.163972082122296 9.85590756801037 0.39679706532967146 0.2925457741180639 1.055711927304853
Ni 6.571612049339945 3.0013057054383707 11.289117489777473 -0.49148565255350846 0.13141602455185755 0.4576846448436634
Ni 3.3014827530898865 6.0411688194067175 5.521040718751626 -0.17482344500321503 -1.1670957157961834 -0.5830675758275635
Ni 1.6117796171781662 2.9546891664369666 0.030134827076501034 -0.8274398755641944 1.5372648941256815 0.8657215447532123
Ni 0.7459111011301476 7.804417330508688 11.020273449038408 0.42059545330084985 0.05046561284971953 -0.22673504627084176
Ni 8.951955709930695 6.040360117733113 3.0113791537565806 -3.273660956762007 1.580712166676039 1.5702115242550314
Ni 8.755868792635656 8.839211542124508 9.21909497036012 -1.3233917914191724 -1.701048279264651 1.2077206884063973
Ni 2.6948449528287397 8.830538913831724 11.631890806616216 1.569021617711988 0.943330293676627 -1.1927949203345005
Ni 1.3156553733162044 0.29196082455613337 5.699046182075473 -0.3981556362400949 -0.22836666833699382 -1.3351995826873777
Ni 0.1609446466372712 1.9438306652755073 1.5873391653344189 -1.16229829440754 -1.8442044750715723 -0.7352912811533917
Ni 6.711034076953516 0.7172328666082867 9.956637403481698 2.003341362577466 -1.4868260207488393 -0.16596728016416576
Ni 3.3962588710676167 2.694891429936418 1.8232049095492215 0.33051968225867595 0.9541957756362212 -0.15179433109789342
Ni 4.835097170574572 4.671785909614317 8.843317329816815 0.8948958523243233 0.7643066945491354 1.0697187831069062
Ni 5.348576256205194 1.212987442454687 1.8732979362049675 -1.5703609053487018 1.1319955296589408 4.245548750361353
Ni 3.3574040090485 7.88526890702598 7.633402024179668 0.03850381250215304 -0.21142489827633268 -0.8574397643603943
Ni 8.951184189943234 4.088024141752464 10.892660324943755 -0.33404389336185053 -0.6274311895446033 0.02349551201877889
P 6.923295027720629 8.026085247869903 1.4002725250975971 -2.5418427217588806 0.41563862351620673 -0.2478965108398053
P 8.581765547272484 1.9085917222337678 11.020314348893166 -0.4997265524060619 -0.7855460635438859 0.7326492155448543
P 4.899663168561362 1.6265314511552806 4.179241972366339 0.9695023240863045 1.6845957901355826 0.09433891719390204
P 1.9332710664109818 4.301930382131391 4.845168759808474 -0.47468503605640183 -0.2859393245451398 1.592389345903651
P 5.603447419291835 7.685900705928847 7.623171483237505 -0.8744332135945972 -0.5277325507006847 -1.5220845868408173
P 6.882423059228271 1.7764851913687711 7.172812028002721 0.49484788415752196 1.167110371084203 -0.5347881719958855
P 1.235900656540123 6.651069312626884 2.038296316173946 2.1519629523743324 -0.6911647231478225 -3.2420464151805195
P 0.6380665500154132 5.0816396359652485 -0.061046751393384405 -0.10730704731879583 -1.4469649228878434 0.01812164930137524
