# total energy = -340868.95653086674 ev
CRYSTAL
PRIMVEC
9.20185462594188 0.00000000000000 0.00000000000000

0.00000000000000 9.20185462594188 0.00000000000000

0.00000000000000 0.00000000000000 13.46784438278661

PRIMCOORD
 96 1
Ni 8.70517523783684 2.6427726234289413 6.600239969952027 -0.48323035452325164 0.027962546651197 -0.45647134126185257
Ni 0.8006579643135929 6.2546845668423385 1.0708510989392253 0.8172043138791151 0.8195661292430725 -1.4886342776021717
Ni 0.955345740031393 3.4218660416317896 8.29091234744527 0.95541319298309 0.06625321470127944 0.3198038385030686
Ni 8.39303913003972 1.5296702891911909 3.700909519952457 -0.8356941451531865 -0.49325894240384727 0.1791894352813946
Ni 4.679547914376906 0.33581339970988205 4.496535910204452 0.7730767274322815 0.935826271990098 0.08262034320539319
Ni 5.460021610760515 7.738087931414446 9.005098644290594 -0.15693576608951681 0.5461305935918981 -0.5121876609875501
Ni 0.9050622059062975 3.9233211047019854 13.550267275915951 0.19827499115793595 -0.6472649364410787 -1.618519724442116
Ni 0.14379646068614804 7.627131969390399 7.488727795463756 2.04002406271048 0.4197313055283417 -0.23190450628692322
Ni 5.507908061778357 6.535571176627048 2.3966027704467137 0.43237033444859085 0.423712915883909 0.2130426363854137
Ni 2.2534237542000923 7.878572644652224 5.963426546807398 -0.590398305161022 0.5625164911490893 -0.40213236149965575
Ni 0.02896927845779593 4.00826342394597 2.1232055500708094 -0.0949230718321462 2.8432243490010194 2.3301056915587677
Ni 0.42342793751181906 0.3786471124006876 5.6481314423472435 -1.0431328050882616 -0.19087432781849065 0.8382271959876855
Ni 3.4927663308501744 1.1194424120147088 2.459874722252763 0.08729717985577223 0.07551484250886349 -0.2821531180298302
Ni 8.642096524976097 5.706355256753525 12.746654596110078 -1.3352180946301393 1.1601876758224405 -0.24739643127493519
Ni 2.3579292161927192 7.976425165813587 8.442197277354769 -0.9484043657654246 1.2766262531288595 0.6891777746247808
Ni 3.7636505247516405 1.7367764292869956 0.05670734877835373 2.1662294895956755 -3.049899648407509 1.168737879385297
Ni 8.174991984897755 2.2467156022415975 9.132935408465338 0.8117504898533955 0.4300198319385433 0.08513719608997597
Ni 9.48609982509283 5.355893424803963 7.169997638704416 -3.007895278951265 -0.43598067750766845 -0.705743649403262
Ni 3.5080138038203055 8.485140492114581 11.052830583437435 -0.5257841687250622 0.4140566237410675 -0.7471728630823261
Ni 4.714367731950218 3.197313185331175 1.509179599505078 0.9835960831752092 -0.2756942497783639 1.2081598328263452
Ni 0.7958279108663858 7.461645817371785 10.751259124835851 -0.4409953571134405 -0.06051219845244417 -6.587672292316603
Ni 4.629333394160848 5.2399132502019485 0.26428462382652484 2.3618089361993198 -0.3541337221331901 2.055599548551234
Ni 1.564894988364192 2.3217107167295707 2.5419883914116435 0.897518634659151 0.742761878498824 1.5245523316550194
Ni 5.866706773939712 7.622567849539353 5.244809557001832 -2.1570748196796012 -0.6639933049393533 1.5754365200993965
P 9.060523254546295 8.688335844031565 3.634405876832521 0.1048416164974388 -1.2306639274661322 -0.07790468289727874
P 7.680226670076977 4.083092905052252 8.079656170952644 -1.1472856230487918 0.1604108691223108 -1.1250005863983463
P 7.644587887449748 8.48013468324569 12.82631689121993 0.8836796718935297 1.2903328040816746 -0.7458993956865413
P 1.675142407588782 0.20784688938614626 10.056546712750146 -0.6057117955896407 0.8543413279407287 1.6116024284969923
P 5.4776707677651695 0.5199112227178676 9.899552032099567 2.0980415197655287 -0.24669066345716223 1.078366688589891
P 3.928382124698106 8.22309007856998 13.64494607744702 0.004245148429599141 0.9629017880506514 -1.4727055221870573
P 1.6856049161989446 1.4045342693234673 0.6168748447308207 -0.8634769716934098 -0.733710309819517 -0.9757961275148164
P 6.262883419236054 1.7435213886636443 2.976110724267993 -0.9323118310789363 -0.2504781555240525 -0.6808108907173243
Ni 7.2252685779893255 0.5510677819994415 5.677854352691734 -1.263129247083689 0.9276360228698218 0.1837487725173029
Ni 1.8214058854766753 4.865508192743464 10.781198278761996 0.47464595528835035 0.4780788922292992 0.8089575004892907
Ni 3.730615866958779 6.449165762511457 12.192884229432709 -2.2926133510402646 1.381013298587383 -0.1867991293078525
Ni 7.838710210791868 8.74743015387718 8.820212222348667 -1.405009404391664 1.154271567448322 0.5727512815032201
Ni 2.486147857330807 5.235477956314439 7.232502155841963 1.9268613279418558 1.5009020392259314 -0.6132500129482148
Ni 3.664270495736903 3.3365004370790383 7.906701793790664 0.46326059626954413 -1.4433021293242756 1.4990467311847473
Ni 7.383485264922602 6.339461252704633 8.480243265129243 0.02999063282481932 0.558840842069715 -1.469543579519308
Ni 5.477348702856325 0.06346058982408667 12.111120230746288 0.43449535121139365 0.8075361946617318 0.38217828697523215
Ni 3.300824847033655 2.9779501749902195 4.13861505496606 0.4367576648830091 -0.4797465097397093 -0.05475729824653795
Ni 1.4157053207330867 8.73816388635701 1.9970794106547543 1.1206675062406313 0.9899793609937337 -0.3678125051718633
Ni 7.6878366037802355 3.661675572757074 0.3198509426421168 -1.778847289822001 0.48148097593231276 -0.25076277664400687
Ni 6.7375426818904245 4.546746749678694 11.529740619711898 -2.0146652722307175 1.0053604714354945 0.23936610477129097
Ni 3.8120154722054793 6.493205838332247 4.917621975736248 -1.3704887449069754 0.02818571840559662 -0.10855223257980659
Ni 6.840364204502524 1.2707669098987233 0.4425604334680637 -0.30179917439553183 -0.15421656738614087 -0.16853812621513556
Ni 5.224463336431972 -0.11116116338025292 1.6785912626697745 0.3431731093566283 -0.31491231473872217 -0.6370993087619866
Ni 3.1315199253816037 3.761515694498731 13.052334682763057 -0.6756134056767849 0.7813729060028027 -0.6264197175609534
Ni 6.700265969155359 8.668432232665001 3.347244522438076 1.4741882773801709 0.6869825667456749 -0.0921262258132994
Ni 3.5230680378451305 6.1062402494288435 9.313364452068862 0.9272207897092741 -0.3639476228998184 0.93950937726864
Ni 3.6969278774936902 0.8950147009358168 9.042445291120151 -2.0537074737348435 1.2771155340604523 0.5785822863627003
Ni 0.7116208198000189 0.866856105862854 8.222711882348452 0.2084755858400216 -0.34103343730580615 -0.3164230949562938
Ni 5.9217338640793535 7.339334766847351 -0.08639161133378347 0.5783182340680362 -1.6527436786219925 0.0943466305033859
Ni 6.875184022075836 3.9247289884463603 2.7451101284923207 -0.5865578483690091 0.7967550448858278 -0.6174902762818076
Ni 3.1514879497299355 6.796940652935807 1.5849633129269922 0.28204538880737234 0.6773095624322851 -0.09227252158317657
Ni 8.264765277774401 6.5477084227632 2.492574432540427 -1.3391079166028486 0.142336013898471 0.9054587154418342
P 5.6532513542124105 2.7659854556981385 12.887016924682495 -0.18826491522010158 0.9003406774889785 -0.8884444402720247
P 5.473134253477737 5.317530893233365 4.223529768646429 1.8161532253613109 -0.48554768980251856 0.44815690785888623
P 2.5112045072388747 1.259927125252486 7.068934590494605 -0.5307528255842473 0.07588482425377253 -1.08552669667344
P 1.3947526979491467 6.5262957072523395 12.302256552290697 2.4627920981826166 -2.432672653089417 4.105284531390246
P 0.5658588429844683 2.9319317004436733 4.457047991823809 0.579531280539531 0.827153197561711 0.6481391115159161
P 5.371113292210478 2.117420344122517 6.0834656594463 -0.7583530480688616 -0.2829159643377837 0.28287765490068056
P 3.4175319681442025 2.8718435903079103 10.168114598100995 -0.8502188211319228 0.8694666136179412 -0.1021419581780886
P 5.375484173116219 6.613326847476541 10.80946729608942 0.44403774348419006 -0.982673828471256 0.4426308358343345
Ni 6.318195766866387 1.6013619378998776 8.064437223731582 -0.9882798618041239 -0.569328114754284 -0.7344505304196512
Ni 1.9812973099359417 3.196439009150027 6.167653426618137 0.030632380173876275 -0.3432193892135315 -1.2347111009523124
Ni 4.4399224203423895 9.354789360829841 7.021649020578121 0.7750649615069038 0.502641926280644 -1.6923368675335821
Ni 0.7634014956585125 8.595746783666169 12.533903118254964 0.19555553534424386 1.9796751293087775 4.019038932727439
Ni 7.9460498439823235 7.2428165145940575 4.940853897889349 3.2991979246908474 -0.410532412637893 -0.7862343478601621
Ni 6.813927276413697 1.840674568880088 10.939094741157337 -0.6106477994386773 0.41363933369799083 1.6074182152123155
Ni 3.67666539380013 4.933528301491329 2.971558566827846 1.8990291362209362 0.10312180559285467 1.4638688977320338
Ni 8.978387500936522 1.8562809141772174 12.629780921432385 0.5682924744009181 0.2388688534198983 -0.5428328966772329
Ni 7.657856961694122 7.054334928083977 10.818557808187906 -1.6160681775778296 0.41497296490774976 0.6242317087706992
Ni 5.897413362534358 3.5994066230957102 9.490250781675103 -0.10460816033039404 -0.132264745705398 -1.1042839226762853
Ni 8.610920641799993 0.30202326965941745 10.893789410337517 0.12961316701516387 0.15589292664729926 -0.589368835455243
Ni 0.9504043441442713 2.694652679316449 10.449377563736325 -0.5460244070313371 -0.6982717665062491 0.7954440393838881
Ni 2.38227732330133 1.573415905666752 11.885062871228644 -1.0876486281124493 -0.9564030677001851 -1.7748659365767498
Ni 8.542449642179747 4.821523328049905 4.458112646393902 2.0094472183648877 -0.10990463284264297 -0.38198751112066476
Ni 6.900930811074284 3.0385811945437475 4.915211089847187 -0.2898759405953847 -0.28933369493866945 -0.10792025542276254
Ni 8.401477230651434 8.89975765390588 1.458109306816949 -1.0030953295504015 -1.1059924207269598 -0.6085808896073197
Ni 1.3571539203052376 6.750968187661953 3.2382890435906773 0.49537855985001134 -0.47408236947539645 2.5421512541382345
Ni 4.507758491999486 4.244622259619354 5.896693777509456 0.1630015126676225 -0.7367377837919312 -0.6099525731438655
Ni 8.809781920229389 1.9899194476384239 1.4730991278600056 -0.40440984467992286 -1.6984956880461264 -0.4035528959962663
Ni 6.914494344663887 5.2450202794707605 5.939521048902084 -0.7004196660871873 0.2952837418745172 1.383777234485765
Ni 8.650985516460194 5.007842478743459 9.778570649555935 1.3061530589433827 -0.6266950827095271 1.025363911140615
Ni 2.341973200423131 0.8768143528443122 4.626217646214146 0.300015857242864 0.34755324070219495 0.41237255117042526
Ni 5.355286102404428 5.3693097287209515 7.880183889381898 -0.9872331657071644 0.12138563689904902 -0.3978594451559148
Ni 4.412105214072802 4.531002376563489 11.169165949624631 -0.25631893057554567 -0.8308715269535626 -0.5221550566129072
P 6.980885725158455 5.633016476082465 1.0317901466091643 0.04657887620080366 -0.404122138236175 -0.30098953401004297
P 3.1193918810999905 8.327843990635143 3.451795073517941 0.09716224557531009 -0.3491570948542051 0.38341884425055256
P 7.422896807910576 8.024633681740273 6.876681163809234 -1.5560630006687912 -0.6032859597569674 0.14739388803735262
P 1.308126439324634 5.884558371744211 5.309132360596166 0.22112155673880626 0.01870683238088391 0.21170103475585478
P 2.197890562060839 4.710797412389317 1.7199784438271437 -1.9644747674192555 -0.9966611438892835 -1.7906658797234838
P 4.020593909027428 7.307956442871402 7.305672542574971 0.9455743525157975 -2.63483695199943 -1.1895080220531127
P 1.3308458181799474 6.100305053251574 9.009193469560183 -0.38005249888148096 -0.74906802322251 -0.5257170629325526
P 8.588965016871366 3.87147785623263 11.688539784037456 2.973016207685893 -2.665689675714228 -0.37293568533104154
