# total energy = -340872.3013826074 ev
CRYSTAL
PRIMVEC
9.16182840203325 0.00000000000000 0.00000000000000

0.00000000000000 9.16182840203325 0.00000000000000

0.00000000000000 0.00000000000000 13.40926195817887

PRIMCOORD
 96 1
Ni 8.067246176352945 2.914826449312814 9.670518452966125 -0.4129402507484372 0.34540431267999216 -0.499168880130379
Ni 4.604597377417123 3.656824583762227 4.643090798194143 -0.22773674806247876 -0.877611611322579 -0.26051162850065457
Ni 7.913025123886075 5.751511666730544 12.887077800492458 -0.12421307904551511 0.23144993524800783 0.12128742075828787
Ni 4.6046706720419515 4.401369706424423 7.126218320547873 -0.017158771167473677 0.018575191899026074 -0.25049743879776215
Ni 4.226012316522687 8.119578538480361 11.496832686211528 2.533909582954733 -0.4949216748182509 -0.31478350247034176
Ni 0.14745504241240767 6.61987889621207 10.402824289464803 -0.8630331992877719 -1.0989923352600426 0.738940962090837
Ni 8.320616532556315 7.634588005991423 8.646479853628938 0.007672171833277108 2.0899276324091427 -0.5363411183053021
Ni 3.789551987498195 1.0521351775823096 10.721764017039579 0.09058433524747625 -0.16114209086138054 -0.9876268016011571
Ni 4.848760096376437 2.074668488562085 6.531665150499955 -0.2170389020290004 -0.2795236508267831 -1.434515384270581
Ni 0.31395386072083137 4.840395347317906 8.639171463350744 -1.7324008254340035 1.238245853578448 0.7610015414353023
Ni 3.904193942557778 5.420613921115027 2.508229098991807 0.11757191957991364 0.14250185005237392 -0.2798679215400793
Ni 2.1363825626675235 4.616452782983103 1.054655596493593 -0.2816183285722827 -0.2059816157735743 -0.5223190929945972
Ni 7.844677886233674 8.881027233993585 12.947392863446487 -0.9629598949820964 -1.360510807758657 2.7742650482224867
Ni 3.837486672135911 3.0251165360232157 11.859888448470464 -1.42841878445454 0.7738840538249253 -1.241856453747842
Ni 8.262530542379878 5.051034937246371 4.449299810148087 1.4890235426207905 1.562129004357213 0.2481016848720759
Ni 6.433334914195912 5.579589962367636 5.672560529231108 -2.5287825461408127 -1.7078719870547039 -2.519533516738719
Ni 6.003434454093555 3.254446255282899 11.010693260478405 0.21840724313143675 -0.5236182714219949 -0.6714883277648178
Ni 0.8151278463718604 3.3206771106433823 5.277281701349213 0.4938333268500786 -0.7996503641557519 -0.9571743986485709
Ni 6.53274074911931 8.849611325426551 2.5363888938508445 0.7646203691348122 1.455995665631544 -1.064297612091335
Ni 2.031800294865626 0.35747620894388277 1.9749566485800292 1.4594697402230736 0.46179840990172083 0.2390568010609883
Ni 2.3830464606991026 4.18840301215766 7.949318789735434 0.5809559288011994 0.4829166799375747 -0.04230184609200457
Ni 7.887133797665474 1.8686922691383223 11.92449399552538 0.013267406532867471 1.1549626799780754 0.3084308207794365
Ni 4.761154696050398 1.1619671728875345 2.1154312941603504 -1.2805541274283558 0.08459752153642204 0.0883446472836801
Ni 5.960767820615374 8.042518402301495 9.171237301001286 1.0265090804886514 -2.2168298282510466 3.0376622258010526
P 1.382794715667134 1.5334518170017284 6.201569064843499 0.31750450094593063 -3.3590295521364983 0.12751386128397396
P 5.707461597208729 2.8771346884948548 8.463416450109314 0.7670127806263887 -1.673257482304628 -0.49697084403779573
P 6.965948629167046 3.745483594320173 12.784644897563652 0.38901202206761387 1.0487532365988326 0.8069944632256488
P 3.56935661085774 8.434168230071577 9.221656673420682 0.17770925119144235 0.6727926483985381 0.3434093937371505
P 1.1128414505963589 6.742106844941382 7.901582000584755 -0.6496882011705908 0.6243744049961505 0.12670267823658823
P 0.6350264618781125 6.866451175962613 4.054625662921026 -0.7921139465693906 -0.16701346204049303 -0.3289790772444334
P 0.7371139638874159 3.5392325200533037 2.232642225820166 1.3801123840396683 -0.5270355246336601 1.0107281635053107
P 4.215925143780691 1.4260385443158379 4.323561965072308 -0.03615099599926032 0.4124581689056961 0.2677698527249647
Ni 5.457746810418671 6.641656561614181 0.25109822283369204 0.08242699624766449 -0.7961189539637258 0.5344855531538021
Ni 7.139107180323933 1.6071129149541814 7.263140009189643 0.368345751967514 -0.5232673158404795 0.2665735184240183
Ni 4.19777556230758 4.469845209670273 0.10394002365183905 1.2199318857606085 1.702087519162443 0.1710837754551247
Ni 1.0954156535434276 5.711382859637043 5.866592473356286 0.2553575951035409 -0.4780022733550929 1.0792177237362768
Ni 0.12550146991070762 4.272471946835734 11.361988900183642 -0.6645373503682813 -0.20548642130471062 -0.11342987238708208
Ni 1.2979103782878456 8.927981603024223 4.4184720909453 1.0415752307931545 -0.48927578938638316 0.00015452329999328227
Ni 2.8029605281686036 8.920588007744668 6.262004147745683 0.4769136682766045 0.8810116381430634 -0.0885739896856668
Ni 0.6286681531742565 7.74114006683558 0.41107198716677534 -0.7126920556966372 -0.0319752673550159 -0.968809411784338
Ni 8.806569056996125 3.2352888727183995 0.4559072253570639 -0.9790573147645913 2.2995933819025236 -1.0994901008320679
Ni 3.2708092802758197 1.8191359409262802 8.34731868056408 -0.9943574354567715 -0.4730485288942434 0.1883587604854885
Ni 5.493734471209372 8.927706748181118 0.10516037915523044 0.20218075397024537 0.3231622134523402 1.3036467475817612
Ni 2.3514289919137896 5.061406126659576 10.653671478208457 -0.5732791289822321 -0.6910089142962487 -0.3635997526420964
Ni 4.899599080522975 0.021293920878245227 7.699463826975392 -1.0504583922153974 1.1534112763305555 -2.1261979275950864
Ni 1.062323130433445 1.0325288654407363 10.250857046711403 0.5587143437941797 1.1404043225479263 -0.34544390766867605
Ni 7.0684969711299575 2.9116381331327825 5.15834193272626 -0.5687629862794333 0.837768254073396 0.7068510235348279
Ni 5.640039704194786 6.4874996419440345 7.581596908423363 -0.5313796605349687 1.0899924457542778 0.45499244272348094
Ni 3.7743067055339066 8.58769298360258 3.69103301753522 -0.09951480496788669 0.25686246178384153 -0.4815668507778996
Ni 8.871471447281595 8.695793393396235 2.6080078203190182 0.5814446955121598 -0.10781612574473044 -0.3437487793544402
Ni 4.245765217913918 3.773756995847694 9.507890507031446 -1.3958917583611121 1.0703939547970598 0.8547048819277344
Ni 1.9121651434896145 7.24177462605219 2.230805279285406 0.312464624529178 -1.8867168945124861 1.3319319676796997
Ni 2.84483924442988 6.926259589822515 13.253030532797736 0.562377908688696 -1.3416563940563153 -0.2556211331775727
Ni 2.8502722084952787 6.6755553255972755 4.621488123708809 0.45503332326374535 0.8955041753322835 0.2849661619985931
Ni 7.902910465659768 3.599544834458901 2.825144062555702 -1.554949198779322 -0.7010619276568765 -1.0260930759971554
Ni 0.32780837717900296 1.2185139759425772 0.789929154355887 0.4105655798686736 -1.9252438469430908 -0.7575742609213082
P 5.8707620213262075 0.6745890679948144 11.706995861078607 0.38181524720885857 0.01799849345994965 -0.17027979149659062
P 0.7356883834345054 0.1010476345195518 12.11593863939412 0.24428256823630187 -0.04560828475741823 1.4151657760993757
P 8.496367881066503 4.053944022910122 6.548922369915781 -0.6442914556350517 0.9956632987523883 0.5957282020143676
P 2.369780133605178 2.828265497390578 10.329435297807024 -0.6557565188518577 0.2859352107800817 -1.247133385876065
P 7.293108348916318 1.6549468194827583 3.4764849917377862 -0.3581359013140477 -1.3808232940637637 -1.8346777665280596
P 6.79423764685052 8.358473206280138 6.896275674988063 1.2002544619363391 0.25134667417193485 -0.5707411930517268
P 3.172960956130024 2.44918569777855 0.3902233311343621 -0.5153331485950673 -0.28437609382307794 1.499218480875921
P 4.171526924790941 5.980575692975225 11.575035302354905 1.094663368867386 -1.2008620136133512 1.8435712123629475
Ni 1.8979551481010257 4.8424842441255125 3.672569185358158 -0.9443574493895607 -0.4014571898095021 -0.5545828381243094
Ni 9.104475059610797 5.512296334947142 1.450439241103993 0.4016016858071664 0.862108116370341 1.2115675729563133
Ni 0.09599488632045007 8.407479824805968 6.4054298181581535 0.9341655964582234 -0.46436565640826477 0.8677807412750861
Ni 6.281963190269242 1.040783672562025 9.676431496824147 0.2810717120401933 1.85850392241338 -0.6105711805644711
Ni 5.927547031911941 9.160178974480315 4.770398064424058 -0.9191094734560494 0.6377307716983985 1.916898817412505
Ni 8.158552955232816 8.99310387718418 10.790513458945727 -0.18958466247278963 -1.3755047100643276 -2.71116092067315
Ni 0.5561522837347457 2.6850661241322644 7.891028490792287 -0.33675023654942005 -1.8036378665031196 -0.4873353778305607
Ni 5.548201539284911 6.9966865624544194 3.0488502517254337 -0.058088419502299954 -1.4715778363405172 0.3973861050639221
Ni 7.631757001107429 7.612553809402412 4.452384597670548 0.9531141125362681 -1.4631764996506995 0.48476401755895865
Ni 2.142988240730175 7.625893431121163 10.856835016404434 -0.7854095379660215 0.918093116376393 -0.07417786886499483
Ni 2.7766111105428255 2.6691428668883135 3.0907143090617444 0.713229673367662 -0.09282222343905949 -0.8254884082647783
Ni 3.991661915462265 6.309952575125553 9.476754034221567 0.6332161716574967 0.1159148435924649 -0.425952346737389
Ni 8.283547776049396 0.7210175480923084 5.065924740280242 -0.09476983408373356 1.1444957190084806 0.30173926769187387
Ni 5.350654201716404 3.5283940774068174 2.101057302048708 -0.2391403619137301 -0.9981384997657584 -0.7712687276892652
Ni 5.380475952193423 2.268615227685901 13.377816463933558 0.08839529801595744 -0.17324633032408226 -0.49769332402611705
Ni 3.1726402921464003 0.20501972456975326 13.141974517257877 -1.5430033392713556 1.3836900740885976 0.4728824356300243
Ni 3.1445318035247425 6.520876181725228 7.1956640613898895 -0.17379448951806845 0.266942728837979 0.01470850985476822
Ni 6.8825210224562205 4.544156797418077 7.8719205820995475 1.3155244728559536 -0.22231146328184936 1.373617520343944
Ni 6.4973669308115465 7.042211686300904 11.436772322078777 -0.14659016118913465 0.03207271216482863 -0.217447964541961
Ni 0.5957002309264819 1.6450245596466258 3.3453828963073855 -1.2014338269564213 1.4265925298790785 -0.4332846187327441
Ni 1.5955232024032049 8.90702850215143 8.44523296987222 -0.30171484221184164 -0.8462025008836781 -0.9593351537453154
Ni 1.180199210813577 2.413014800425778 12.204653537103496 1.7303539702073036 -0.8213633303528113 0.7240424477124499
Ni 7.1738763179768625 1.5886976404660684 1.1188369509073146 0.3847121091406794 -0.10492029225417414 1.411555690150614
Ni 8.150811210485324 6.3814423198174675 6.766313310973743 0.40250311457551324 -0.35423116694300283 0.23140854048711115
P 8.503184281175535 0.8973222710199499 8.874182432217433 0.21912946600944197 -0.49707008861982144 -0.16879420808999962
P 4.695162048220606 6.884005238608994 5.621377060347877 0.3284520010963698 0.8771084464339152 -0.6518011337485355
P 7.6406714598521726 7.187793134866139 1.5692324204772894 -0.8717250706348147 -0.34680530679257693 -1.3380563354098827
P 1.1201159421105686 5.942105176768465 12.30557198984679 -1.1644634203796589 0.33530347680056444 0.8582851430798251
P 3.8409406813309452 7.924156745031874 1.4828629507624176 1.2357935353832135 0.5103176976583469 0.7981177295613093
P 5.92350666571828 4.853689159896142 3.5472591976548147 2.0337919657578394 1.799424085532088 0.3480720893201425
P 2.875888679872773 3.995509883265751 5.788604243990532 -1.0781134349285046 1.3433324962071573 0.1833314824742262
P 7.213922668617432 6.0020876653623345 9.662553159612909 -0.029322917333833368 -0.0613650333710427 -0.19885246092796074
