# total energy = -340892.78113501106 ev
CRYSTAL
PRIMVEC
9.05412156243227 0.00000000000000 0.00000000000000

0.00000000000000 9.05412156243227 0.00000000000000

0.00000000000000 0.00000000000000 13.25162211125169

PRIMCOORD
 96 1
Ni 6.517555030754207 1.9053855431066151 11.226005140927702 0.7123806951038054 -0.249603466228583 2.0509134559294746
Ni 4.728297649894485 0.3303169873048749 6.089557653740878 -1.037578965149568 0.2819453728943983 -0.07768742468015007
Ni 2.6053325132314136 1.6466549673723836 4.786711220107495 1.0367577547998532 -2.2290376831711485 0.6010269885194617
Ni 3.354316605352874 4.160830585429796 4.801791764863338 0.31039771469782024 0.37669592370442223 -0.22628381766603609
Ni 5.070099790311023 4.559048956858372 2.57027133316866 -0.5294521044949526 -0.6162386632628936 0.772166042692554
Ni 7.185052029454331 6.30400452126136 2.660939305782133 -0.234335484325919 0.062120166369512377 -0.3980417363700499
Ni 5.169677018471896 4.643967562324895 11.701765725043872 -0.6547555883911692 -0.9953200564803568 -0.24909593046454523
Ni 5.5595203275210565 7.8206966287482045 12.09042203876553 0.6380341618714302 0.6609437194797521 1.7111010355149627
Ni 1.7382826768639297 6.421427422881505 0.524296107782215 0.824206199118245 0.5857880600825202 0.021354040195743867
Ni 2.687055013811522 1.3852805881627042 0.27066300244756253 0.025494801836994804 0.4038814829802786 0.3512972811256595
Ni 0.3908302082917078 9.066978343777093 4.6668763005220795 0.14344055981655943 0.15892528571571984 0.6861397591294054
Ni 8.62327206597643 2.2846355300110024 1.3660967155470234 -0.03321788151286537 0.7098828683826162 0.39529039887715794
Ni 6.623225682678696 0.8946051497139831 4.90223909409952 1.478915250542195 -0.8692028184335935 -1.8349924695550008
Ni 0.44706626228606966 7.608694374030364 2.5250966994001702 0.6733418360337887 -0.09845268225195948 -0.22490930591601266
Ni 7.799437551486727 3.973310675224321 3.8981496964889284 -0.26323494096908856 -0.18598254694382807 -1.0099732876171572
Ni 7.565062562563984 3.8059995641873363 12.685671675026148 0.7972186147858076 -0.7670649740205627 0.9534195595918291
Ni 7.835789849274134 8.639940703641837 6.8059930845134105 0.7910633938176892 1.2977884890287714 0.4978463046642136
Ni 6.858859194488725 0.8235782828514997 0.39224265124434426 -0.7993613721604234 -0.7411976193354978 -0.3772579668554793
Ni 1.9255400175461588 6.69715258465483 9.1230124908622 0.037614467918664254 -1.1444910910227901 -0.41021770961095155
Ni -0.09998104197938221 4.8261093243645625 1.5591722346995358 0.06539060959066803 -0.40008627760390447 -0.8784199661564871
Ni 6.516522860904203 2.011898228329792 6.926583117831197 -0.9666514849010707 0.15656989810966584 1.5651348810630723
Ni 3.2232310344024184 4.023968484967918 0.029145217080364345 0.4782886942472601 -0.2802283902032916 1.5114235075825453
Ni 5.97706924833347 5.467222613039157 4.743789251766031 -0.4628574472938545 1.3338893485163867 0.32782156660122247
Ni 5.2294432744357 2.8965854933622497 9.510980691350522 0.8460045259402591 0.16385280492432427 -2.0893689316921953
P 0.28331161017085205 5.6026541623054165 12.522239349636019 -1.073739217120209 -0.9320871166626399 -0.44620492633883796
P 3.8868709773472663 6.073350776271524 12.7200067145453 0.5222954388455133 0.9441856996983868 1.5699603274761738
P 2.2722223294464854 8.474485687510562 1.309819918005951 0.23134580556997575 -0.31860673287117386 0.957466475967693
P 6.3353498898641005 7.692653242618813 5.676769390008569 -0.6776250367901749 -0.08454172859782215 -0.0882636575340996
P 4.660980256606972 0.9902945381065082 12.55326148610152 1.1805844943112378 -0.7572837262640829 0.5864362351894804
P 4.126343436669589 6.329347007315396 8.06590487403524 -0.21286548737760114 -0.361457509488113 0.7450599305043814
P 4.471015733598856 1.0894281143143085 3.7239311961662622 0.5753354972906285 -0.16085618418984554 1.0784026840341492
P 0.29963619121959295 5.741788847261602 3.469393584094633 0.5544609678344644 -1.4996967060639204 0.2962044539165737
Ni 1.3407705269116723 0.9427875626418697 2.608554875070153 0.10864376385234836 1.328459435750067 -0.1523255210110151
Ni 1.9976108246165845 6.322954797542566 4.814221262846538 0.19758516417976293 0.0999017559936602 -0.962209389969317
Ni 5.845757324345734 5.5513535099359395 9.172745874801539 0.995932236143059 -0.4538981812180376 0.14087048509653805
Ni 8.766200427837452 2.7227644689730495 10.317275561687355 0.38153911072933644 -0.593021601716482 0.05521598305051136
Ni 2.625930639624029 5.304438562747802 6.943213728186342 -1.875451606011312 -0.46085764325500633 0.33901049333850647
Ni 0.7713722183328974 0.28671414902726733 9.43624163467662 -2.0610916820140566 -0.5356564335334516 -1.1667853836446165
Ni 1.592873485714302 1.0710301394440693 11.386376267841637 -0.33598996134462783 0.46972023585195877 1.3929694425079944
Ni 3.9522960592431073 6.8721234824734205 1.7263421014412568 0.440760358284499 0.4699824883744099 -1.4367622713232289
Ni 5.872059547277843 7.8713453843703105 8.123257301209474 -0.9192359717315847 0.3954567492516931 0.07677468305789359
Ni 5.436474816454839 2.9646272163690646 4.831594311163967 -0.46229823235627476 0.1275403436465352 0.06501857096322997
Ni 0.8546475007487566 7.301243570551664 6.74335305038828 -0.790377166383942 0.1184761765617379 0.8310659023525558
Ni 4.846716504878669 4.497598634297194 6.850730404213873 2.263616192476966 1.3114729284943996 0.41612918999938014
Ni 8.456332173920588 7.475236623249199 9.054753468939593 -0.49056956849714217 -0.4913627538223989 -0.10101298677996796
Ni 4.790173516165753 0.5407854738420969 10.33651738068058 -0.4804137110100629 -2.123595456975233 -0.053625755745256035
Ni 8.226936951818036 6.959604404321969 4.806562381477082 -0.42132590370897116 0.7911263858451407 0.6276849574266222
Ni 7.338845337104865 6.133234735814715 7.2095452389124866 -0.44180319772671656 -0.7693450283039912 -1.2032204865431986
Ni 2.310521263354513 4.913535921484164 2.362366973837763 0.16901480874123795 0.2892205663995729 0.5212639122572055
Ni 2.3826645033968687 5.226844741567708 11.483431923167194 -1.504230589378532 -0.013308801293764176 -1.0825596436253164
Ni 1.3345141289612121 3.2319320451555194 3.857149918140058 -2.076515729878611 0.9330237695442963 -0.861708052718445
Ni 3.6118610911717504 2.6611511722250287 2.408217045069501 -0.1862139462283438 -0.2791428704485967 0.5011427160272982
Ni 1.2664452435899232 3.5845538607541116 8.232530588075337 -0.30781247046914734 -0.19152481691829595 0.36416128157252126
Ni 3.716463356760271 2.6212677670560307 6.952834637682955 -0.7172380231961066 -1.5267483108650737 0.5432985234597417
Ni 4.136610810440677 7.0516395492806225 5.979502996190321 0.3664019979775819 -0.26831184127136365 -0.8447469993840742
Ni 0.9986696004859233 7.364785395177323 11.310855840483041 -0.8016257427145678 0.2815561078757796 0.8219109753261653
P 9.2762190914401 5.601341314689183 7.966994029216125 0.8191786639966665 -0.020957061867641326 0.9028655007933613
P 8.566113397002109 1.812924854437873 8.165331803779358 0.8360445865140698 -1.3264529468429993 -0.2023494183376257
P 2.029970254826346 3.2745045244074213 10.358514368843593 -0.5170645294638773 -0.5599363891267388 0.3211456972429437
P 3.9718982322716845 6.021814716743275 3.6933327925865505 -0.5878901940271875 0.3014703303012034 1.1443720489464226
P 6.892902691295861 3.9892459290489377 10.609248344476745 0.5916620023647939 -0.10794133846868506 -2.0380628252190514
P 6.585886485648742 7.440197173078024 10.219849592792805 -0.40029068030522674 0.5991657669410068 -0.5888944669219858
P 2.310584642204952 8.448889686054772 5.724197594616233 0.9097743120980525 0.7721184772840702 -0.06384640503199972
P 6.923731974973599 3.9123764375881445 1.6499325593522196 0.7033154995777436 0.43567497334179167 -0.07794144967248512
Ni 5.398891158144622 2.81140431837248 0.4177164220600029 -0.8650121773910134 0.37414204693431696 -0.817659656248979
Ni 1.4298540282641747 0.9152811415514233 7.149144289032145 -0.3234990279664687 0.5501165748228396 -0.6518409858475354
Ni 7.0386831014266305 0.7663408430202046 9.199064395152334 -0.1925776836628425 -0.44284346606577274 -0.4483993628869955
Ni 2.7231537961971735 1.4642325275664871 9.212209168733343 1.3975722313873287 1.562021275134755 -0.06501882807354609
Ni 6.0926632174123805 2.1411820291034864 2.5672898109615887 1.3175116784893115 -0.43585855010750746 1.009222782604378
Ni 4.1569282590670635 6.600852948473794 10.589662468866853 -0.4481875039865056 1.4507796686482435 -0.901105323569145
Ni 8.065311829077563 7.130799733478704 0.3748234269073101 -0.12044615580391514 0.03942760986800307 0.012839832077145627
Ni 7.739843323831257 3.8086795841487495 8.227494685701897 -0.2892745595659599 0.8919341985928381 0.32682809233970167
Ni 3.1467870866517145 8.290668912995011 12.553619123900427 0.4882866860002365 -0.7963804351552285 -0.592397852089554
Ni 8.985780982243478 5.28480017323326 10.333217153397015 0.7826600002453424 -0.9241940870678084 -1.1080878698034078
Ni 8.676057594270473 2.3430889383585733 5.971936466860075 0.6496336937835716 0.5895755521494105 0.18035800166819904
Ni 3.9260209986754724 2.539155939251798 11.351299695772349 -1.8050375750641237 0.8791038795973892 0.5738015771446053
Ni 1.032296607704461 3.352940378886202 12.415551014455911 -0.614759764724522 -0.20418801420826124 0.393934913290528
Ni 3.2563329025744636 8.468681995634665 8.099855113391015 0.45539199215474474 -0.6480666064067678 -0.7250593190127385
Ni 5.317594201274602 7.935620592836762 3.6633183798430258 0.6597435285240637 0.13491889549879346 0.14689972200975346
Ni 2.8762499364928806 8.246819802612842 3.512382552935133 0.13124453197099978 0.5245973475058127 0.35244245047369627
Ni 3.56297788924044 4.512909153738914 9.368088545975462 -0.6193599825006946 0.13993717464899125 -0.6135338627372208
Ni 7.1801628038490515 5.906981293869631 11.6864063133461 -0.10854323371874211 1.3124352924076685 -0.014014312001221028
Ni 0.3421407645603107 9.10038805207984 0.5277855662049464 0.0910713021862238 -0.23150778506913677 -0.7712036787792848
Ni 4.577863421317209 0.3826280796327758 1.6314069213689535 -0.051715940317052865 -0.6714716155942695 -0.678716984302773
Ni 5.856522674798842 5.530112540917445 0.6409122871774883 0.19450446837191018 1.302494636255189 -1.45943477322008
Ni 8.02108244559276 -0.3575635551085221 11.302812158950207 0.1432202162756372 0.21172520312557086 0.5136516471275863
Ni 0.1749591274606513 4.899646899116573 5.659701465585394 0.29095708947470533 -0.32879575758903373 1.0495394799455535
Ni 7.732536647787811 9.143123505518586 2.677702106311051 -0.2565238474975002 0.2042286376382096 0.07811191381207838
P 8.528611225785312 1.9059831151250384 3.871222739173923 -0.5148958039473326 -1.7582584099270557 -1.4917172874028695
P 1.730677214811272 2.94374841221022 1.423171181191476 -0.6900195537997859 1.1095644543489342 0.12033097038228956
P 4.8438191860014665 1.0041473439881354 8.201269422802465 0.4335430146004534 0.8956887805392639 -0.37634651078480347
P 8.530575970148915 1.504143095099959 12.424853218876033 0.3503002073197128 1.2183372875799792 -1.1318281508431411
P 6.2671723550349165 7.9674548840000305 1.3406265663799615 -0.084925337189486 -1.1427882493990706 0.8257226357627714
P 1.7326600674178576 3.1952628531159184 6.115226088168599 0.7413909662932264 0.1666401378614743 -0.32320386532355305
P 7.0375332279972405 4.068451383854476 6.06312052439855 -0.4961514334602939 -0.18851636910927533 0.2699568330739544
P 2.5805604368313277 8.409649123511652 10.30827757574934 0.9709727379842439 0.7678622731108776 -0.2806701057264005
