# total energy = -340897.8405301979 ev
CRYSTAL
PRIMVEC
8.99403712440095 0.00000000000000 0.00000000000000
0.00000000000000 8.99403712440095 0.00000000000000
0.00000000000000 0.00000000000000 13.16368246277199
PRIMCOORD
 96 1
Ni 6.368524788513175 1.9280697262371025 11.380424993467397 0.1759956109344453 0.9122556837590096 0.11265725588711566
Ni 4.527454383371604 0.4791735170208276 5.956171570897614 -0.14176805721014296 -0.8640899226870602 -0.2912316832923307
Ni 2.4703292184495234 1.4272907332382236 4.7778771578084 0.6675830791731406 0.15492336364517836 0.3895892347273226
Ni 3.1629060531068567 4.1847365987809635 4.617780598799117 1.230283918418894 0.3187532857513672 -0.5290710670064501
Ni 4.978109607481265 4.495390641026358 2.821042702042948 0.15411423748032166 0.14163821650049802 -0.9105577272312962
Ni 7.190130079744114 6.144132556319187 2.709823338377565 0.11242842770576121 -1.1356161571306638 -1.3878609176368355
Ni 5.081828843589369 4.389944549790544 11.631258795400736 -0.29044621127655784 0.6933046523089608 -0.6636654892862892
Ni 5.564646744452635 7.992587065939143 12.26045644925625 0.6327235482917941 -0.5491472689310348 0.7758710023479671
Ni 1.9835449472147975 6.639434180709859 0.36610318051543056 -0.3242996694908931 -0.6466974939733829 -0.7446742650301885
Ni 2.821042702042948 1.5728862061933029 0.38841918542623743 -0.7520116792318662 -0.33039241265219227 0.5558218527377331
Ni 0.4817629003086808 -0.19156849371180545 4.6325371155076285 0.9383696072372419 0.9808149208856465 0.34263214925149377
Ni 8.70674059565573 2.3305079173277257 1.3519890568255042 -0.41494673965550477 0.42911814605988036 0.4247462422444298
Ni 6.826222343690529 0.6774353731599354 4.742282356488471 -0.5887471427108442 0.1423843506379032 0.0729095436755325
Ni 0.7928243724357686 7.3178993711204345 2.4818280949119074 0.08451138958051897 -0.25305311534008035 0.09320968868546527
Ni 7.5682483944528185 3.7148701113755247 3.9298860598682723 -0.06216387512325423 0.23126044494502107 -0.6024601214215625
Ni 7.645390250861004 3.7383535423049614 12.786885536727615 -0.36461842371459785 0.5183426248453524 -0.9570080482740356
Ni 7.8381234723803015 8.892512432441448 6.8261989591940075 0.2544093722576586 -0.47813931315358943 0.31394635128102705
Ni 6.994069064489127 0.7182916861971076 0.35004882424999834 -0.593865437774016 -0.4271070291671225 0.30637162425756265
Ni 1.809006662796323 6.404024253039595 9.059259182499842 0.06159257600081651 0.3588108158938853 -0.07513663323383835
Ni 0.2907925100655875 4.941054174532481 1.3225551709351662 -1.403117329575274 -0.41491254398345967 -0.4913902646262247
Ni 6.3286722100189845 1.9885186497440883 7.011266562872954 0.7219660247993953 0.325779082249897 -0.6744412397455546
Ni 3.4343281054195804 4.473993826709571 0.6019421237564854 0.29373156689604896 -0.40135126035925717 -1.181970576025487
Ni 5.9331234513649544 5.603474002714748 4.694840609469479 -0.461722819468779 0.14699151039261138 1.0666663694338274
Ni 5.245376414642936 2.7357162718523846 9.190672857718598 -0.15006603555287704 0.8261244991868805 0.6154686178660885
P 0.27342502438012556 5.547432157398272 12.247042742290276 0.0700731026680019 -0.4888397302902291 0.318485119691645
P 3.9931636080505966 6.2266258648158495 12.394857943607432 -0.28431618711942 -0.004265460144573298 0.5137966573458829
P 2.344331752386532 8.533614375065646 1.388676633655938 0.9737600709213939 -0.05770378246937159 0.2717645757066545
P 6.229243129618786 7.711523405830037 5.742591070729776 0.4728659805697921 -0.1488992689382855 0.10995142692017838
P 4.678365332266667 1.0561607853744739 12.57179044070818 0.8963238430201015 0.14519019551781445 0.00033115808717362326
P 3.8826358858400107 6.1450139719572885 8.243585458751843 -0.13534287041008947 0.2049518889574793 -0.8503504616137806
P 4.767352335566491 1.0730425930552672 3.811294283972764 -0.8123066194671817 0.18708914974444554 -0.3740394599181816
P 0.22470432528217257 5.418196837970823 3.593474894108624 -0.24366267526411584 -0.11868340747653754 -0.5738002915930246
Ni 1.4392887787609612 1.1790193324813667 2.542209563140467 -0.07969931290385629 -0.6658262443830338 0.10526044920241226
Ni 1.7227718348562873 6.410715816659472 4.872734569138728 1.3023555395741635 0.24867298399451365 -1.0931402473546399
Ni 5.742153061121861 5.585162143131319 9.180233478829361 0.5741684735657209 -0.07495125669590963 0.04231598715939164
Ni 8.606421105580308 2.3467511483727517 10.218335137063578 0.034874957500314135 0.13289209487675177 -0.26617294055149
Ni 2.508212102813669 5.165779186100037 6.788037259679034 -0.6501569132768932 -0.25433326760408453 0.8547586179838054
Ni 0.44595943732748616 8.786355812272879 9.047503975979437 0.6008531819457588 0.7505584917251074 0.20384991414255216
Ni 1.5723195818545228 1.20424760661276 11.350806729816027 -0.5115019477744351 -0.680054472167274 -0.2977013501770744
Ni 4.13539531112149 6.778329096007937 1.6311648685423903 -0.34400049035393016 0.7623747676337451 0.4276703578697602
Ni 5.644549770257733 7.829848958226689 7.993238234226884 0.05977712005863254 0.1117015768420657 0.08915017390411098
Ni 5.308874316734785 2.912907797222289 4.926705987109374 -0.4589539984743902 0.031229133217610734 -0.3168756091126801
Ni 0.612783536105142 7.209809032970314 6.929033182049158 0.2558067668258175 0.5484386728997845 -0.22040421895680748
Ni 5.0079788047683795 4.603292104396885 6.957914834060115 -0.5436121980454186 -0.44207444911023225 0.01248064896551399
Ni 7.9893492125746866 7.005977169640628 8.888262749900598 -0.2735144685182257 0.07523922024997363 0.6730780408494408
Ni 4.649647371731359 0.44741827014891644 10.389528539075826 -0.24558277510496418 0.026528385307831734 -0.28994124661568127
Ni 8.160901476668162 6.991577716205918 4.689351548613012 -0.9095459981373303 -0.11962340279230366 1.0395877680494805
Ni 6.987080697644173 5.973461707863814 6.912526425716415 1.1141060509730298 0.16386360355760168 0.19436485747025237
Ni 2.2749517500159193 5.274903838519359 2.43674278561927 0.32964010786720005 0.16374764680502768 2.152594415310744
Ni 2.355817137793231 5.29322469213991 11.220249286931425 -0.06613931483123447 -0.1702733637386874 0.7582311777790167
Ni 1.047562485884416 3.2438074170326616 3.82203586250935 -0.3629076116710782 0.6429351987174734 -0.5589156611717084
Ni 3.6546460387966264 2.574911882121482 2.4771152194591974 0.14465874849437668 -0.26091246348349906 0.7816001915222605
Ni 1.3193173175707094 3.4114742570887886 8.192996698143341 -1.4577998087198185 0.46706634316887946 -0.3396219016702603
Ni 3.6533868735993376 2.582394921008227 7.154158428268711 0.6633376736332254 0.554676169169064 -0.49483734263456075
Ni 4.122632772443255 6.923609777663694 6.0903751964320785 0.39624350681904663 -0.38343478509015255 -0.9383832340839969
Ni 0.8993956177157306 7.399403335533513 11.292385961680388 -0.5433558590602384 0.13353512777738938 -0.15085510711307568
P 0.07811950824350941 5.383362932191541 7.913216487131756 0.5468831554872066 -0.12056571210091495 0.5423094200735951
P 8.596194885370899 1.581952195613782 8.006638450137173 -0.46078719502838705 0.4361560267432682 0.1254567216446291
P 1.7810352073422646 3.2855667313970325 10.351077231565476 0.10044631564322055 -0.20842596354900875 -0.2346303898585185
P 3.8435028303156993 6.175350859174825 3.8078324790839324 0.13693309771534481 0.013017495305590484 0.21604234244368603
P 6.7132482433823535 4.036883622507888 10.357093342997379 1.2089005676471116 -1.1546073535211858 0.5740332335394371
P 6.3720954212512 7.7368775964811585 10.164495032034933 -0.6443418492570129 0.24713135053900664 -0.2343462829591964
P 2.3523274513893164 8.254835200385905 5.859707824537031 -0.7118916712825288 1.7017393917944046 0.05147194262704683
P 6.834757684920722 4.054089215525128 1.6796598173085433 0.1904927761093558 0.0007271079740116509 -0.11497896204175681
Ni 5.274634017405654 2.940069789335233 0.33960045132363836 0.1696557847593465 -0.41830562882540856 0.637201895778122
Ni 1.5950655017398325 1.1518303582570522 7.234746799702619 -0.45525083859119014 -0.7045128623199545 -1.4018762580793211
Ni 6.788357447400631 0.8721472828464011 9.15153710398315 0.670067279047575 -1.0344766720751601 -0.2571028599294217
Ni 2.8197745428085357 1.6771990487515562 9.221633031708794 0.10163339397278624 -0.88293250931486 0.41663929686657925
Ni 6.25179118068738 2.0344601913708824 2.448984569548054 0.9313790348520218 0.07600720876424974 0.7027413722418283
Ni 4.138732098894305 7.088227639134957 10.294433685165439 -0.3569274828282434 -0.6322728339076208 -0.18947127682337692
Ni 8.120545232095056 6.936156459450964 0.30599872863027444 -0.39327748221218717 0.6550335246429042 0.2911031281342664
Ni 7.5249960699259475 3.7226049833017276 8.376551504778115 0.5011985089658981 -0.060973197249262735 -1.0636445518883682
Ni 3.143254081992028 8.409145895313648 12.24702925123459 -0.3262871322345671 -0.1568028400560783 0.3013669719541197
Ni 0.09948124581551389 4.800378439883952 10.10515327449785 -0.22908940543563128 0.17082280848425418 0.3213760680861949
Ni 8.744704426353989 2.1542337837444174 5.660633806845672 0.008405193344559718 0.27819490471303054 1.1400376832371268
Ni 3.495685426676039 2.720183569740115 11.548024378245097 0.6943135531894494 0.18932652371539652 -0.5078226991506352
Ni 1.1786325888850564 3.330707803719836 12.498784941973087 -0.5391132817338006 0.8876394278722262 0.6097000908134275
Ni 3.1979288336657326 8.31376413161902 7.958907095122805 -0.5560015728487069 -0.005611946870138723 0.598258424635389
Ni 5.471711358855598 7.869269822938953 3.628556135908803 -0.04920937184511526 -0.19820068627657478 0.01424108330004644
Ni 3.0092789050004995 8.437674981069362 3.5942510795123814 0.277507905948335 -0.9149782248964952 -0.20991206117623204
Ni 3.45403404075715 4.26187845518915 9.19284491768392 0.0065036054464726704 0.07244648799618492 0.08563933253737509
Ni 7.131542921921692 6.009653713248744 11.283184162299344 0.5770684208213352 -0.07287251979000998 0.5627422340066501
Ni 0.574454547499671 -0.10484439015225182 0.17998417389674853 -0.14380848467893942 0.3168370425652608 0.16227774712772053
Ni 4.66126766769491 0.2637735231429069 1.6769741978234691 -0.3912771639527068 0.1649208411775224 -0.8219351436958813
Ni 5.806829182076887 5.640673340257507 0.4076673242742215 1.1196910012599748 0.18277175331601425 0.10998870791601703
Ni 7.936401316028692 8.908818621746336 11.128379694733523 0.42575077224954416 -0.3555205751783877 0.48525535537308045
Ni 0.12232340189804504 4.813105002413692 5.792678863470498 -0.33690527407004556 -1.0049269834425016 0.29008317151018426
Ni 7.904076746606863 8.656158130873216 2.625680523472454 -0.6455767501053785 0.2838181644370789 -0.5442909692799981
P 8.413292146427578 1.5478198247301322 3.5627899376544083 0.46081316317031606 0.6773740971216334 -0.6232883710208234
P 1.7862337607996428 3.2711852660365697 1.6086545924297158 0.07309774842693863 -0.5293675152009464 -0.5013687159951752
P 4.751954544011073 0.9167981801459743 8.115331388774568 0.11117012981862788 0.29355210389539116 0.4336160339302339
P 8.630498142959896 1.6420953218585692 12.3343181803255 -0.7309669427464249 0.1648398514279419 0.6438122020057879
P 6.274321243681725 7.7159124959462995 1.3979045157446401 0.1351448954666705 -0.11885361450581465 -0.28573826427792726
P 1.9443219513192513 3.136526542223656 5.99320092113874 -1.4353545923424247 -0.16491929851562567 0.16618993769793314
P 6.931974232188542 3.948535195843832 6.0892032733948875 -0.005928963889925273 -0.2867664484321255 -0.6481216280144193
P 2.363093313826135 8.545108754509467 10.096162834989208 0.2185571384457397 0.05272586963880597 -0.18771007115789606
