# total energy = -381161.46862320864 ev
CRYSTAL
PRIMVEC
9.23330568053329 0.00000000000000 0.00000000000000
0.00000000000000 9.23330568053329 0.00000000000000
0.00000000000000 0.00000000000000 13.51387618030983
PRIMCOORD
 96 1
Ni 5.159405001407875 2.3611778557291174 8.456200182634523 0.8954033880883612 0.06135860561313949 0.03693749645629768
Ni 1.855635904418796 3.251490120361394 7.416753411697928 0.47154417643457497 -0.3173363507991825 0.6998403965449496
Ni 4.9139283372214315 5.254212583889873 6.723518669661314 0.9353804427019309 1.545021655252965 0.5814760629707275
Ni 7.953938824823992 2.986475781405578 1.7404790396002103 -1.2309238659957382 -1.5758134438228408 1.212152498925506
Ni 5.651530959599153 8.405549037794097 4.825818594662733 0.6005729317011785 0.27408499630971506 -1.4991027812336633
Ni 5.647403671970651 0.5357468641047665 0.9769936148058992 -1.2765061826112274 -0.1766741250587086 0.3628806150878847
Ni 2.081953459367789 4.146612937240762 10.431320602233155 -0.5254941482884692 0.049199601653102366 0.24252959010093714
Ni 4.618517956044078 3.686942048432443 10.502133593305338 -0.0475155290824601 -0.6847117684336272 -1.411917444365407
Ni 3.6577001694179816 6.675292190886311 4.406118686041848 1.8595791577554295 1.2810938019819098 4.418225067114578
Ni 3.412149638786284 7.679617313766321 13.445211914794319 0.6908255946408489 -0.9589219774672968 -0.6955391980664344
Ni 6.799821784276915 3.1100543443135513 10.636637003466205 -0.43712584685570527 -0.9242323965049115 0.5736483393961928
Ni 0.47710890987137844 3.0724470903742076 3.5609600560620565 -0.04055041061853661 -1.167438186737267 -2.0458625237691286
Ni 4.331943848380094 0.23375221266369006 7.741004946424246 0.16998180064019758 0.050070434293829895 -0.9924234516588522
Ni 7.216788634423444 7.441231828324147 7.066784350726274 0.27743617217013505 -0.1265520115913369 1.8573417837844786
Ni 7.700826216859538 4.224846736069157 4.000661151396273 0.5941418313638541 1.1933315095642612 0.7550301543432159
Ni 4.315065365639825 3.9854825202273845 5.068082068480679 -0.34594167324070096 -0.8092719464059158 -1.6786961368216962
Ni 3.0646172471774085 2.054475141733739 9.24842427128501 -1.0803726632763264 -0.2184419530241141 0.32331288009759157
Ni 8.824842680966091 3.998390681535315 10.576891975884589 -0.315859766253656 0.003371744685710322 -2.263675584959992
Ni 1.4055676534933446 6.132392284889375 0.33307672827289864 0.3134575845700666 -0.9489047024406109 0.13275685485046815
Ni 6.333022783501699 5.516586197427902 10.980051340752237 2.095408967238688 -4.220964119043454 -0.2823318096995396
Ni 2.3334594721479953 8.593779206909604 6.285966164553388 -0.2431260860343555 -1.6675079814153604 0.8894037188615005
Ni 3.0888639078316475 6.686482957342114 2.3538336844098553 -2.006008624996984 0.4073391025115759 -2.1923719523189984
Ni 6.477468617193594 3.1022245011167517 6.059946845377103 0.5762927189975752 2.7732093532644626 -0.32402301879073875
Ni 6.057417842957759 3.9457423726813654 13.289193979123 -0.11658075931123793 -0.23218758474498075 -1.0882332969713258
P 0.5651013894482383 6.672799198359028 2.79443964369842 -0.7573156079432828 -0.5177535851111019 -1.277243574997884
Ni 2.7398449540120584 1.57028982640714 6.01176930312208 3.7355560401425922 1.22244153955634 0.120347939663154
P 4.935128007008991 7.4035876411621775 6.35064362401676 -1.288744119438316 -1.2332633127621921 2.6442453897975233
Ni 1.5727735856287661 0.6479342978241885 10.791127750381918 -0.1605435380454332 0.2844609402274004 0.43192244827789483
P 8.621774589660422 1.7235996335293746 6.366954258459149 -0.44378577537438413 0.7478647469430282 -0.38491985427611125
P 3.453459448293926 5.950643896344804 9.941779969625724 0.6371471312807866 2.9319312647201246 2.7146463081185894
P 0.5811091714650908 4.68534862238657 12.19107047406926 1.2064832164548704 2.4374070824506084 0.0828730826461476
Ni 8.082752672039259 8.5618227360321 5.15451688939327 0.8458893405186336 -0.12308642164023964 1.108050331697253
Ni 8.333344587559461 6.740977927327385 0.8612476650864225 0.16653163730806803 0.791912886302178 0.38451773374168613
Ni 6.037307703237679 6.389004315697682 13.520227906601388 -0.7282240898939653 0.653859558939461 0.04192029438286974
Ni 3.3371751968546692 9.064742428535947 4.3139536756387695 0.9039800740137786 1.2088229203316405 -0.34471217170897406
Ni 1.4151702913762114 6.460451634868476 8.964957170974474 -2.56147695105004 0.14408847781320344 2.8047297924702472
Ni 1.343150507254709 3.147190699664408 13.302505635888126 0.4642625551714972 -0.5549852157690507 1.2351168210311634
Ni 0.9629599135384285 8.201409883032262 12.738165994156557 -0.6821131544685156 0.6082821274199782 -1.191222433641058
Ni 8.079548714976418 0.7307930594559772 0.7402415011343789 1.0702602574326727 -0.41821641154571204 -0.30562060502415106
Ni 7.528172634386721 7.302593743890255 3.350482236966965 0.5412683804035904 -2.9994301789030473 -0.4706293779297894
Ni 0.5830675555948562 3.6348939044461726 5.538878167274638 -1.0100360225342926 0.4728808929681276 2.348851347597387
Ni 5.53953096198456 1.2467640295054316 5.761343587103696 -3.518991763757165 -0.8714054825118669 -0.4525817763994593
Ni 6.428264331349558 1.6776085380538355 12.822708910740111 0.9586316999203878 2.133380561386455 -0.6467640855452603
Ni 3.010934808089919 7.027413535406519 7.860521778173879 2.651926817602181 0.20025422637149384 -3.204433489923752
Ni 8.850917536140338 8.98648092979058 2.9254030044705437 1.0980495117307993 0.6760440654563002 -0.7331366967042341
Ni 1.4889444035724688 7.872898101075989 4.263722646205718 -1.476380399935483 -0.6514828311771683 -0.21357948272549024
Ni 0.9566258658579989 1.060186622102457 4.9832824659998725 -1.8313623290015815 -0.8594958755584745 -1.7463395470022829
Ni 2.6922841965748967 1.521879604849571 1.1045692757326155 -0.4130875749595789 0.28520090371721846 0.33278328148187203
Ni 9.145192220721928 6.589994913230615 10.968145916438612 0.4976262182336075 -0.05770403957968772 0.41665395215459855
Ni 0.31279023241477644 4.7676266090925585 8.122744888829704 -0.15232243568722154 -1.377669064705498 0.738478934852754
Ni 4.915257933235982 7.467251283664454 8.787776498738223 2.6428716493784488 -1.8046369971915952 0.4175340407667067
Ni 6.49987785002217 0.10138077277893406 2.938929797257467 1.4671367698500282 -0.4986536310568573 -0.895467151446761
Ni 3.15028385705937 2.4022660659010002 11.698354507646526 -0.9541831772307308 -0.03227994307962828 0.5334833371415328
Ni 2.693826158619549 4.317475258416198 1.7579521472247654 0.4993311167398562 -1.341292068738361 -0.612056506860746
Ni 1.8577595647198144 5.47481472263743 6.40856415040063 0.9294746187404572 0.22579582228602402 -0.35903912985460745
Ni 4.681350601037261 1.3391524859054 3.2387629318443327 0.9219595413103348 1.093526169939149 -0.2620558330593229
P 5.258847703329488 1.4495735882527139 11.078554092158008 0.4549849865243132 1.1940719872747112 -1.3639735694962767
Ni 6.498372821200143 5.182035833572209 1.8023052542768232 2.270013097142245 -1.1516544415404488 0.5237388561602594
P 1.0470199282361412 1.2546862057587969 2.750830741082284 1.5491842712710868 -0.17578323781332308 -1.1779899941111842
Ni 9.150058172802957 6.0411949249191075 5.028702943185833 0.42565409877067983 0.09579904667919631 -0.20858151529026658
P 0.7088094820181714 1.1481246251759427 12.731409061077056 -0.1700663899342039 -0.30120370690337805 0.5022189798106125
P 4.286469818021325 5.5301591567431085 1.0725029285177996 0.8516550393578171 -0.4401399510916807 -1.7188187158741948
P 6.199601516763788 3.0508319218321 3.3318060296153544 -1.870452610134824 -0.6503777710384476 -1.0465641993673138
Ni 1.1469796952745241 0.9136485213487751 7.412780320273891 -2.64162363590396 0.8188300224079963 1.5124537486192726
Ni 8.291240713765353 0.4814023970016988 11.427752172107333 0.4802062229849472 -0.08086916484224137 0.1073409858805248
Ni 1.688596171785193 8.355255221882581 1.3307003179073456 -2.250297620991189 0.6811597894163107 1.4856993633435638
Ni 7.452265628583788 2.7172141218477246 8.098189835766533 2.1742790993730297 1.4527956706370075 -0.00854506135653367
Ni 6.898147256214079 1.0346842318789198 9.455564250385239 -0.48497947600387437 -2.150902372320302 1.6594164626564776
Ni 3.532884343552024 4.654352415297353 8.547323676159536 -0.7189640047482779 -2.7440227043981773 -2.9593713632089482
Ni 7.659738006687655 5.995166896220943 9.189773390423703 1.363622356804445 0.6276121952071579 -0.13235833386046883
Ni 2.3197480132479398 9.006184804061771 8.85650830271541 -0.38404516498064184 -1.2337142842566817 0.3269857009634885
Ni 6.881795071896235 6.138449333400106 5.358941353299892 -2.2858091836342376 -0.4612415089569863 -2.0052738037134885
Ni 7.436689041941099 1.5114182695406402 4.486823317463951 1.282156181808153 1.190302750040266 -0.6304121265497982
Ni 2.275917511296046 6.456998378552907 11.60871665300166 -0.37129892105856693 0.14933404248285895 0.018139389913188114
Ni 8.225591910546907 4.4399365913397215 0.13787356672552567 0.8582059531024576 0.819205403469544 -1.6779361187272201
Ni 6.392522205152848 8.658329246754914 12.482767219711528 -1.7937275493679432 1.1629585536993583 0.7177275612380155
Ni 5.902233674787235 4.696170056616108 8.803925550331623 -0.0007165664510503788 -0.7296572227960659 -0.5695235185945418
Ni 3.743606845247015 8.819995195496373 1.9687152754646455 1.7503944337979465 0.7570615829509477 0.7367588668378537
Ni 7.616175270599802 4.938627429852843 7.1172452894701745 -0.7504384212074754 -0.24314639774932964 -0.8757056525491176
Ni 4.898591816525814 6.822000184464075 11.49048417406886 -3.968748926223636 3.4230484781906205 -0.2498911726723309
Ni 8.902697914262566 8.330731562058643 8.857345763538463 2.328083004701784 0.5733876295356383 -0.6476264335455557
Ni 5.401160643414709 7.104437771193901 2.701653231824652 0.06742949439756774 2.410774310354429 -1.104601196806388
Ni 4.053790515474932 4.693187698889026 12.306249498821423 -1.222080042451863 1.1426378398641355 2.39806020522187
Ni 2.9330426415708173 2.564633745872362 3.8652519539504953 -1.6812664686520333 0.23192893176695542 -1.029715760351407
Ni 4.789832709196689 5.114549602528099 3.189734078807771 -0.8515959039851076 -2.874674597090501 0.7977220367847874
Ni 7.067319882454357 0.492235834528591 7.188868964779008 0.37324473193102814 -0.2999469516781415 0.4457020185604905
Ni 4.729788522511799 3.1290195541322134 1.4862695149237508 0.5218218416432046 -0.5951679586355234 0.3897314167321417
Ni 0.5003002036890679 4.526037166587544 1.9422821680309228 -1.254565159563762 1.9743010094810578 0.030620038878702106
P 7.314181542489291 7.017847830746279 11.95040159213821 2.658148630142177 -0.660967630739152 0.5272761798895564
Ni 2.131462444298494 5.187806649607586 3.87475302547114 -1.8156302629783054 -1.6397992026461823 0.7175211016541643
P 6.975531590922068 7.99183231123869 9.273086430693796 -2.034783126026515 1.1632228631043386 -0.1597092150695959
Ni 4.211458442867084 9.022287689126886 10.2208686363939 -0.18392129353942516 0.9172474805466461 1.069300978843197
P 4.002924234612707 3.0843026548372854 6.883360117205029 0.25150865367109587 -0.4093795299803723 0.55009729154913
P 0.3405178493015549 2.490758067313882 8.973714038059196 0.5607635130137245 0.4896367722702276 0.656110816867483
P 0.5755091715843611 7.177574785299852 6.937916027007634 -0.23314994865825006 0.6241358066227832 0.054397343803957936
Ni 4.097510217758947 0.575620894582806 12.568472609477247 -0.32703275215134 -1.4427246595542509 1.4718663141152135
