# total energy = -340897.865848894 ev
CRYSTAL
PRIMVEC
9.02752240011627 0.00000000000000 0.00000000000000

0.00000000000000 9.02752240011627 0.00000000000000

0.00000000000000 0.00000000000000 13.21269154852415

PRIMCOORD
 96 1
Ni 6.403618848512279 2.0191046872562604 11.295608862155749 -0.22628176078350706 -0.24472222687688175 -0.08603399687263248
Ni 4.629584311818458 0.2774690256997854 6.010585800327691 -0.010629454689388146 0.4782809809377763 -0.2573669122240858
Ni 2.894647974634193 1.5833100709726493 4.770402828214133 -0.41575535159972915 0.4277706308930504 0.2980196527484416
Ni 3.21730065269262 4.218173033534226 4.750279578034785 -0.135609750918231 -0.17354020741541726 0.7301922693639294
Ni 5.161612316874147 4.643622109148718 2.7940750558449725 -0.8000632833234544 -0.15977400686926033 -0.4565489885773234
Ni 7.146367281402663 6.137929836790795 2.5631302695800633 0.4569585653109163 0.2513255911260123 -0.5124583981504336
Ni 4.973144731752695 4.510384906063625 11.342646767615122 -0.0884354072252735 0.8019694992072318 0.23501476978113076
Ni 5.626818601133314 7.860209587571827 12.191931700591425 -0.295205323228098 0.0681728003214955 0.9028793847504323
Ni 1.861068880141439 6.521734951579246 0.43082586795526656 -0.05505091822755681 0.4135619434928361 -0.07221868825609498
Ni 2.77246045896533 1.5340288261971549 0.4744360231597839 -0.11855408098752487 0.21713300440470348 -0.2352520826029174
Ni 0.48999856902321587 9.080152854467093 4.648410307029086 0.05087544669362851 -0.5265341595172094 1.336205655354389
Ni 8.626745541983265 2.2066334100482283 1.3890107063815205 0.5067636617585014 0.7143031089374988 0.1222238165296282
Ni 7.017616756949813 0.6615214946019665 4.770072420894333 -1.923015214722888 0.13193127362537924 -0.013675440604563546
Ni 0.9875206752136597 7.317420775816671 2.629299300507146 -0.3199395927499845 0.7997622071432677 -0.5119819727346473
Ni 7.347572700628936 4.038001741497347 3.7052481686268104 1.4756201247306908 -1.2202293623963696 0.6927343816277877
Ni 7.600207914961638 3.707197210712729 12.61560957631126 0.6225293813676117 0.8559804062060483 0.30367530837232215
Ni 7.943903747731859 8.824312869682789 6.8802846697045865 -0.07612290840650762 0.5007632212006923 0.381810105002536
Ni 6.832751153265516 0.7658498627091216 0.22091250062303197 -0.160459205861743 -0.47836659867304715 0.8577326130104647
Ni 1.832253028644209 6.5188190618444075 8.969475429856804 -0.3623784786404856 0.47377486553730663 0.773317382688178
Ni 0.039110838040914704 4.85009057393354 1.5269250688214748 0.05672213528239264 -0.7439828953901187 -0.4952967987694825
Ni 6.398355802953731 1.9405201047739962 7.043976219602308 -0.08846368936004766 0.23036724370679035 -0.5581893245286451
Ni 3.3225435088187822 4.365547336695968 0.5142158006104557 -0.1637309346344793 -0.298098328505177 0.2595711189642562
Ni 6.010524413175378 5.657259406662343 4.842861333996516 -0.2924485864185673 0.7963457252625512 0.8575868314612198
Ni 5.411033733232847 3.031432994022047 9.220357499339645 -0.582590379080829 -1.003928366974658 0.19690999248960925
P 0.2773155578190044 5.4765103531919355 12.372602214616963 -0.14899259998304015 0.5410845465275584 1.033540019193504
P 3.877636833603614 6.193476182111112 12.62431752441722 1.120305494915522 0.0411618189502904 -0.12884209317709422
P 2.4272480024320973 8.553911491269087 1.484207735582207 0.921416010102039 -0.6308672118093457 -0.5709450815324167
P 6.275942599224896 7.853998652161397 5.841145524166362 -0.06286938583071108 -1.2093466540455946 -0.0684561358898692
P 4.795690723957879 1.045378066268092 12.59526244357642 -0.2196107765212347 -0.14527761302529818 -0.2663693728330122
P 3.9504799118401897 6.034537622756404 8.094002557153583 -0.36772123100963766 0.11781308905644226 0.5057002534909936
P 4.882445214211132 1.0801611100709827 3.7264944425925783 -0.05077851610444803 -0.09095380277175304 0.6320738305229372
P 0.1235858788884494 5.64484656336388 3.592914193656327 0.05039799283657771 -0.7097211459937713 0.45637852443773014
Ni 1.4378766851266667 0.9508508792294026 2.768191343622899 0.3375781317673541 1.5703609053487018 -1.0574448508355596
Ni 1.8642917056378396 6.676900006571223 4.789521315150483 -0.07116170774649035 -1.1507026191501406 0.11674968078893443
Ni 5.8232394334881805 5.5236249925916985 9.180165164115344 0.7906281060524835 0.8854133667551848 0.7506934746410749
Ni 8.657258567691484 2.3507036400119796 10.17634864982297 -0.1829807840030268 0.326978758984953 0.32116420918570493
Ni 2.2589840124393428 5.069071184763212 7.069887014391577 -0.2273755080683181 -0.12058036738893425 -1.140365756000507
Ni 0.4420001351806022 0.04918826129478625 9.280554824199866 0.8947940366391364 0.5107532425338688 -0.26298014464580516
Ni 1.4747992517380926 1.059713771837516 11.450950856586745 -0.07814250993969768 0.0457995748326179 -0.05053580396602264
Ni 4.207150428685192 6.7980132470746195 1.6796635257926327 -0.3163526467296745 0.3099495714168082 -0.156994130131278
Ni 5.579731044300747 7.663797782739361 7.961307005412423 0.16131898275887702 0.6138675919275558 0.2072309147996431
Ni 5.261790732934536 2.989861253375197 4.970297451188088 -0.22226029832893981 -0.828416894765483 -0.519255366467609
Ni 0.777123432680845 7.512297901841329 6.878540552377123 0.5345811981914018 -0.8940522733771054 0.31886512873888306
Ni 5.122288429304619 4.380171922982157 7.207139659439694 -0.07940363604030841 0.0937899866689675 -1.0149465724620328
Ni 8.157413679987808 7.236642505391479 9.259427713529762 0.2474303698366642 -0.984109275366202 -0.5041241672531253
Ni 4.7087556832566495 0.29675091079155663 10.241210495506694 -0.6336180350816055 -0.32766215820522276 0.24248048203055658
Ni 7.98376928664532 7.1902590953060255 4.666921241707992 0.6179281351501745 0.2745189985233401 0.17611748122429025
Ni 7.493556765341251 6.310797863206978 7.103592172020043 -0.5475606411702054 -0.9275987418739832 -0.49872793593821857
Ni 2.3879241148625687 5.216264937476977 2.6674044725528248 -0.3876531940468743 -0.3808127740862732 -0.18977595254798926
Ni 2.298163459650489 5.1446225197194515 11.536436979942952 -0.26254331421870264 -0.524046360098349 -0.5369952069495333
Ni 0.8879164095778393 3.429239796051164 3.804964375540377 -0.0765885351890165 -0.037480770554277384 -0.7253038309233767
Ni 3.864276100453269 2.6941737847222287 2.6045521533550917 -0.8553913664717979 -0.18407016041246363 -0.3611286653937845
Ni 1.1467481152851335 3.179394086139716 8.280763940541647 -1.1550135878206689 0.6501258029286416 -0.032492059090434365
Ni 3.394348421979487 2.7344094520540443 7.189963895323582 0.09179661038802256 -0.06503374047188155 -0.7717209847353355
Ni 4.076594399752565 6.792091192380953 6.035888140107276 0.17987412005324505 0.3172502188432794 -0.2783478853511271
Ni 0.8192503659552262 7.4766482158881455 11.251333378550433 0.4525475807274142 -0.7624087061954741 0.46129087413768294
P 0.2601849313148866 5.408009513229222 8.039605415434643 -0.3578803336598159 0.4058982562999913 -0.7016339981102626
P 8.404830986373957 1.6245477932907408 8.048286280973407 0.8710303585606354 0.4865676464266007 -0.5405883236174303
P 1.685600927274377 3.132198199038364 10.590329160981922 1.1552262180521073 0.2947841765302794 -0.8481066598849264
P 3.974438956286821 6.106107820334737 3.9494056366747228 -0.1419151243109685 0.7949627288720954 -0.846088086793001
P 6.978067181320313 4.06525583161957 10.51787065519954 -0.2866939433229772 0.15235328892515695 -0.9311003272693384
P 6.30326890952631 7.7149928622634185 10.13363221933594 -0.47435079264543467 -0.3696737267503182 0.009063652864165035
P 2.3794111612404234 8.572733875470755 5.690032021227003 0.16150564484838636 0.2772014304515097 1.1249867024412754
P 6.828318639767664 3.974845194794771 1.5420136697589657 0.6663240099550588 0.6364069106806524 -0.5717997162232282
Ni 5.311207390546015 3.190434746033549 0.17613598952457915 -0.18375648582678675 -1.5092300994756525 0.3221031760602066
Ni 1.4222771264213994 0.9824110975358927 7.1271106733736085 -0.27671266374054926 0.3732151642446734 -0.9696190521698267
Ni 6.8460486937590685 0.6175213504298176 9.080646659942312 -0.5922217315230058 -0.1311483727127677 0.6718935336230364
Ni 2.6591108877249723 1.5333246794500421 9.217874027927712 0.31318453341433805 -0.7146507220849047 0.5489732052470159
Ni 6.348036393102365 2.0285294206406927 2.3752720422205362 0.40418975824931674 -0.2959733117423742 0.6325499988284073
Ni 3.789311554452956 6.69685985859515 10.263130222643419 1.402419532177301 0.4873598033105929 0.7752778488486585
Ni 8.191248833938817 7.003380354126778 0.37312284753385516 0.8072500308798807 0.41728464376006197 -0.07771750658713711
Ni 7.541122780860958 3.816809387679949 8.282824923905311 1.0146907476974847 0.2547392447932516 -0.35582190846889045
Ni 3.166493756631715 8.32875605511858 12.310674313712875 -0.08478701183940882 0.2362697252341544 0.3235267958806105
Ni 0.1304486014160792 4.985918675947112 10.217308324451174 -0.2078842321129258 -0.9307601703211003 -0.2614739924139239
Ni 8.650280292877149 2.2866985062039094 5.693084226550065 -0.7924677303643836 0.21856639441712036 0.8738428883087661
Ni 3.7399941995878656 2.4706974677379145 11.353560139443129 -0.5303782158536479 0.3474241713234984 -0.06656714639727246
Ni 1.0100894812108638 3.285602887162559 12.763023600571556 0.6318300899432473 0.2856169082087146 0.12289641711662061
Ni 3.2416388530800053 8.284322589871286 7.891372594892767 -0.7956456138717329 0.37870678348686393 0.36271966402998823
Ni 5.726410228237776 7.933946390525893 3.419457572779736 0.013743574838337621 0.07114371002436135 0.60048782818654
Ni 3.3571369746512967 8.418047279165918 3.716730274365948 -0.26598910667545805 -0.4379758535608263 -0.5977215782953126
Ni 3.2836980799363946 4.253768554353016 9.310521684802954 -0.09979479810215071 -0.10840902213372297 0.2886158429360384
Ni 7.311029289958263 6.140430460495284 11.42482972052558 -0.14921037242080107 -0.5077404238494738 -0.19611037940644935
Ni 0.5839479946283769 0.003688645652183027 0.3609934684387178 -0.07062743250957515 -0.12699424133507806 -0.12503557494681047
Ni 4.628266293548221 0.32329272939650844 1.5334916886144214 0.039865982957002305 -0.5065561737333857 -0.08490888212925377
Ni 5.9989330744152145 5.631594160482322 0.30636161113740595 -0.5203547701793748 0.4316905347727469 -0.10036172634921425
Ni 7.9308680053878735 8.825441309982649 11.326473961237525 -0.30076507670406266 0.15545583910988067 0.15270784405109827
Ni 0.02300664083354979 4.930859816836334 5.7357347561235805 -0.25194059900219196 -0.416277028431154 0.06632726247232448
Ni 8.135422635424133 8.804298852524466 2.5341808107513297 -0.8564838282050282 0.11226361999312277 -0.5737041323347926
P 8.370309740720632 1.7439006669263544 3.562260338598685 0.38469925362487295 -0.10905128370341219 -0.7611095277680763
P 1.8226567723341978 3.120191594247851 1.764528555607799 0.08525469550444673 0.17423260549675154 -0.41161433284816207
P 4.588951433501092 1.1404469046507142 8.134182253846527 0.8244309135345413 -0.09882189266592013 0.14025342033782942
P 8.500495641234904 1.6772594965778103 12.365269158172351 0.1699728017791331 -0.8540279104653679 0.192136739470682
P 6.434836020967612 7.813474104112817 1.273489113251992 -0.8122757662292464 0.02026157846251349 0.2676479824351197
P 1.5742374109617736 3.099897723895165 5.903206129649713 1.7384971681397285 0.48504272514164204 0.6366030858518584
P 6.893813314771551 3.954903397815641 6.014112853328934 0.6810752001223045 0.2774027478290384 0.16947760731026942
P 2.487127558503879 8.449481112158825 10.130051903952545 -0.8223676032476095 0.7044478134099738 -0.09639091462692431
