# total energy = -340892.2408493109 ev
CRYSTAL
PRIMVEC
9.09008844705451 0.00000000000000 0.00000000000000
0.00000000000000 9.09008844705451 0.00000000000000
0.00000000000000 0.00000000000000 13.30426328248930
PRIMCOORD
 96 1
Ni 6.2507358005037625 2.0080096635421016 11.555405176004594 1.3266090128048895 -0.08318958544530189 -0.017242846240847723
Ni 4.462360857902282 0.5208820754194061 5.921102826329536 0.35285896918582454 -1.4097636312471977 -0.08949521594835555
Ni 2.840052744075912 1.9980923768710392 4.632358240991387 0.04963051854293388 -0.9323144021820975 0.9512798875410069
Ni 3.3154825584388123 4.401675426356897 4.9920521381914655 0.4014777586347924 -0.30583297814527327 -0.9891722917114062
Ni 5.374723961374233 4.41576506369892 3.0073885492206656 -0.6621009730126468 -0.43135989090620547 -0.763706341960975
Ni 7.166907651102362 6.1370642424637625 2.75097623878192 1.1410823224515574 -0.705201660856863 -1.4565597656651301
Ni 4.959634155189622 4.54333536722018 11.5789666856759 1.1091363656725803 0.4403135005550675 -0.24320784711488438
Ni 5.989186680992773 7.533465474210159 12.390340722733393 -1.207274087787282 1.3055323946402484 -0.14917129165274953
Ni 1.8175632171209875 6.588005358117366 0.5895386056649331 -0.0031555149098461788 0.0674408072514774 -1.2454572837252227
Ni 2.65437859417387 1.5334252274197233 0.3888185410993319 0.7190596497858778 -0.07754395712375033 0.21143081181360365
Ni 0.6312621123745371 8.991206623881698 4.772851014477434 -0.11431664586740957 1.08185541846944 -0.21363527566409013
Ni 8.52314887137969 2.2919567613826035 1.206313843825288 0.9930875676054122 0.5409050835269007 1.6073500809785415
Ni 6.754735763360842 0.9307432626368344 4.932435701066352 -0.33907888468259667 -0.1229468107385818 -1.0598742862126584
Ni 1.0207715002080586 7.617112469578737 2.7754022158798235 0.20004236747100387 0.2868371537690608 -1.1781393752048548
Ni 7.645928050465327 3.754179324737767 3.806629136004524 0.30565171537240265 0.2659009178370259 0.6251459930548524
Ni 7.698732375187787 3.9848130528937746 12.767463046821124 -0.4479172810442544 -0.43827358730690325 -0.5320075239269547
Ni 8.047855408345905 9.069890430870442 6.777231914647319 0.014889258407006617 -0.9300842272999983 -0.04608265329067547
Ni 6.6964046647648665 0.7566135252666437 0.4296294029127172 0.6272566116399519 -0.980008622934267 -0.2979353205647514
Ni 1.9553144198829353 6.272188409618069 9.57620927533136 0.20511746800106612 1.0454084884963157 -1.3077507424478059
Ni -0.06031546493904921 5.009047876861389 1.3886592032791694 0.510333895608263 -0.5256995794310559 -0.056801839480392496
Ni 6.454962821254236 2.149306000861075 7.333882579729388 -0.38553383371102634 -0.07583751595560488 -1.2713616622958104
Ni 3.3440799771988154 4.3219371690896535 0.40783864250220236 0.14044753862650652 0.19417253895378817 0.27317791111441336
Ni 5.990268401537097 5.822965320711332 4.820068570741567 1.1097210345314568 -0.6054366875513831 0.662057521369221
Ni 5.2040211874091655 2.8151368112020507 9.489199856186772 1.024424944266113 -0.30814619965948215 -0.529476529974985
P 0.15088274476471333 5.591549844935057 12.362082364278459 1.2810174402180194 -0.28585396392018514 1.0238279341120624
P 3.9239003691331957 6.243518270149204 12.67636854185621 0.16872093164990298 -0.13261570128691352 0.15386406914272857
P 2.5263174258677914 8.611577253355946 1.4013380588692688 -0.15565278561203516 -0.07820215953303951 0.48109762445096504
P 6.298967810656521 7.895969117798896 5.818592988091 -0.46325956782827965 0.4798771217803026 -0.22325788635551871
P 4.7519438106795935 1.0145175192459217 12.810715506434551 -0.8241653185779807 -0.5936124412229454 -0.1030313027615774
P 3.9707506858175745 6.179933100337943 8.31605574569119 -0.7582502039424103 -0.10689541370267398 0.28494482184235437
P 4.732972795755204 1.3473602037075476 3.6539756419790197 1.1374825209154409 0.3076139813050961 1.1072602316957898
P 0.19273714875026907 5.718329310747442 3.5028529188750617 -0.585585714263727 -0.717298444120397 0.7815659958502152
Ni 1.400255429316085 1.2034277406923253 2.6253703034087965 -0.3939850498021731 0.7643056661078709 -0.1363643696960684
Ni 1.8147634698297983 6.599404329231493 4.750766644204889 1.2885798259463097 0.45495259062448096 0.522098749453675
Ni 5.9000856324595405 5.501376165946109 9.390468767782483 0.059574002908890956 0.11044379317556463 -0.13679502947558375
Ni 8.341928864895449 2.2166544673559456 10.247622309086358 1.6892278895909554 0.34306640857543497 0.39051277498285647
Ni 2.4552874734867793 5.142463107357436 6.985576745537107 -0.29755171197308755 0.7770876483638876 1.773992789943177
Ni 0.49854681870128675 0.11650402965017678 9.144272807929994 0.8784621322483323 -0.13997317009324925 0.8345088665958337
Ni 1.3078819488840596 1.1088999092602614 11.625066161041278 0.17963269346640032 -0.8870976964361432 -1.1443941604336096
Ni 4.113746869706198 6.845545748552334 1.572936206562199 -0.27448146041718535 0.8396323038653282 0.6746705821475414
Ni 5.620365425821646 7.615676235578712 7.984207516923252 -0.015548489257560317 0.8743550520584943 0.18763139540116075
Ni 5.400421641868361 3.0979294677893674 5.1183898256975136 -0.08972995766698094 -0.494384057147226 -0.16657817427528732
Ni 0.7241437287597361 7.280815551446164 6.836462023006602 0.6790501992724757 0.4896169747758858 -0.27066337222267584
Ni 5.183423046623989 4.7648426464139995 7.171862658402451 -0.3496828854506881 -0.9444027008051993 -0.2585115673514902
Ni 8.334920406578867 7.316439608699963 8.66534603647969 -1.1630999643732294 0.13988575258576552 1.630907042362875
Ni 4.726946067008262 0.4241544425442652 10.37173746992781 -0.7186708989878913 -1.1558785069241255 0.7799737116624309
Ni 8.109168056005226 7.371298293447776 4.667481434362899 -0.044002116612562925 -0.7769557507717134 0.4066595599460481
Ni 7.422057348233491 6.228519623946405 6.78403039191706 0.1603728167955238 -0.5716961007658283 0.6726360682160158
Ni 2.3068826868765404 5.310166152081943 2.7082691844849567 -0.4421438688955869 -0.7306476117337932 -0.6083839431051651
Ni 2.54634289107068 4.92973685375871 11.499832919301074 -1.2695546909940587 0.5298488257127391 0.5984977943397047
Ni 0.9780662639288167 3.4121647408709146 4.1151285631745775 0.6607488298601266 0.5975179469249388 -2.237988721716849
Ni 3.600220493988189 2.9305354860775243 2.548418158299831 -0.36214862201786663 -0.08995930006896764 -0.504537343531144
Ni 1.2053911998316007 3.3830491870602697 8.323027843653339 -1.0564786302675484 0.3603550204525536 0.05209492092302641
Ni 3.7781044379533832 2.434307548980076 7.097026685921371 0.083097797062444 1.732279469364791 -0.5833164586135761
Ni 4.108920032655479 6.627519973295285 5.874390678991995 -0.7228625684717357 1.876161744704459 0.940477140498548
Ni 0.6490950482052346 7.4965597144626654 11.426605892503567 0.37963932260346234 -0.1826920491180144 -0.0011719088209141107
P 0.37485707400667806 5.563788714326967 8.19313774951938 0.05563610130706547 -0.8782250765368617 -0.4942935543159487
P 8.545783192013003 1.6589957114472766 8.009113450699646 0.004363162064702163 1.147370212342798 0.202637896112322
P 1.8544780669570884 3.021881786496873 10.636984437484436 -0.22815712342934902 -0.10493957552788379 -0.7743267977892987
P 4.095512151959038 6.026265152423814 3.718302563020672 -0.2168938918107039 1.04726842452319 -0.18609104749723435
P 6.997941084061378 3.8524795429420498 10.51872329370638 -1.0355804466623004 1.2117722327679519 0.05142154900508564
P 6.613948471003904 7.593405518489708 10.112290887911797 -1.015523270901109 0.41182876285181336 -0.2580842500060846
P 2.4145275161695974 8.569862836734952 5.766799481221724 1.0785009001749102 -0.5310140496654339 0.27454625221684975
P 6.984987707795325 4.049634474755689 1.5912427360093608 -0.030468086681870107 0.06382095111070299 -0.25828505316298095
Ni 5.363770404601886 3.042716269585852 0.32214637719687833 -0.07414033075884006 -0.19206140614805634 0.4110111520465244
Ni 1.4440696564054731 1.0595861785631804 7.034070550241768 0.38650725336788916 0.0985347004428045 -0.3430319557930738
Ni 6.982406122630721 0.6393059317835412 9.210515010641302 -1.4850612155389329 -1.213464275758394 -0.9931148212989219
Ni 2.679176355895831 1.7137544052204041 9.047351556167508 0.5382936140459826 -1.4111119177449762 1.9495780528130808
Ni 6.410866801418007 2.088993262948608 2.389046179784333 -0.12118200552867517 -0.578735524111113 1.5203352082498784
Ni 4.134626803238215 6.874270428552845 10.531189441223058 0.49330830758454397 0.5617958109329808 -0.21690443333366513
Ni 8.266599300602966 7.219239291217219 0.14552050149499754 -0.8570165607800465 -0.3119480899040757 0.43640182420548707
Ni 7.713212886339943 3.9245094050699154 8.378452840921415 0.7619129975059782 0.49068423969813557 -0.3674474085229607
Ni 3.1209364820555994 8.337856505199174 12.320732460210635 0.3728528958092482 0.44640752926794736 1.1171571790945278
Ni 0.24573691037779552 4.658515879969068 10.36583073035049 -0.3422763085739718 -0.5241954840817036 0.06481905335791417
Ni 8.903050944563672 2.2166453772673376 5.733392496579356 -1.3244032634028222 0.5273348010416338 1.52725996039417
Ni 3.813337621397049 2.506301050753511 11.55947571768315 -1.242640383101718 0.03861899792377865 -0.14479784517540223
Ni 0.9684762204476333 3.1878758945631214 12.75108543417653 -0.0014380179981072008 0.9253721665363096 -0.2932230026907466
Ni 3.07919479516878 8.4890610391006 7.920719611060095 0.2519238868316436 -0.6777713325600521 0.7192141730858711
Ni 5.782314444457443 7.880643228406217 3.4484114691943453 -1.383593143499417 0.6108375468519802 1.0183046903009882
Ni 3.2421982640830764 8.876480615563198 3.5979652430046043 -0.507754564916861 -1.2335139953204175 0.44409996418069325
Ni 3.4496613563779115 4.221718942189134 9.389137978810307 -0.4106910497029443 0.5895536977725395 -0.8186225343828806
Ni 7.321948202396263 5.958862145397297 11.326012244943547 0.5379282602867639 -0.6692177865630862 0.08674953488241834
Ni 0.565199893417664 9.004296351476869 0.43228370878618216 0.2097058587026969 0.5930959065978431 0.2270165820670026
Ni 4.753734558135322 0.24587144368919037 1.7175940586483205 -0.8608498184832077 0.2486848110690556 -0.941359028882869
Ni 5.74346340574789 5.55952546276993 0.49575252546326226 1.029041359992202 -0.19259439583339089 -0.06832475251832748
Ni 7.937410831761659 8.989188624210776 11.183616915911896 0.0791912629191862 -0.2333525515873594 1.122986127071479
Ni 0.3558078843202628 5.035509124798569 5.742945270697248 -1.4592432260345642 -0.5137395788557023 0.45004049803484436
Ni 8.01824898975044 8.692606303205492 2.674503141342583 -0.2118146775155836 1.4273147527570837 -0.7729826250565784
P 8.56423607188675 1.613145304509751 3.719632442983987 -0.5085140687907048 -0.19689919385633184 -1.4044707582793747
P 1.6788939154096565 3.453751896251402 1.5152886826295267 -0.10046199937250441 -1.0407326802872015 0.6685549561681067
P 4.776168896819264 0.9199805977252503 8.306383891412535 0.5018279150197809 0.07784477619362078 -0.9363718600809229
P 8.375662183718832 1.4839569652163103 12.584170500134316 0.6604724362702883 0.3876897037117646 -1.0723284528156112
P 6.433973806658925 7.788224297531153 1.3137695992753038 -0.18759128619184465 -0.5269560775459763 0.24690560768144576
P 1.8278441073363607 3.1576877102967607 6.1971788164445805 0.005387746674474591 0.16072120127387804 -0.2838631587424015
P 7.027565682834057 4.1612607628589435 6.1661934314073195 0.5233025399537891 -0.522010560615243 -0.8283613589371991
P 2.293865679990233 8.456563972327869 10.31644518795341 0.3849370806672919 0.4003693560619621 -0.8883475096828444
