# total energy = -340870.54209711537 ev
CRYSTAL
PRIMVEC
9.28892451977751 0.00000000000000 0.00000000000000

0.00000000000000 9.28892451977751 0.00000000000000

0.00000000000000 0.00000000000000 13.59527997357294

PRIMCOORD
 96 1
Ni 8.80929998071141 6.298559476532212 0.9707046647331488 -0.8713283494170284 0.27258630027700154 -0.42431146869985636
Ni 6.220114510836364 3.069469300698466 7.362469207670586 1.781046611466165 0.6589737402375747 -1.577547138684496
Ni 3.832470831453065 2.1584116055594844 13.169203364939227 0.12054874282005047 1.6742707540604909 0.23276942539037979
Ni 5.379383261556858 8.5289509564762 5.300378173725846 0.681352107932775 -1.2356431258482783 0.9274113084535254
Ni 0.9709619679362008 1.1856475863094893 10.959019010912911 0.4189252646872785 -1.2376341881363782 -0.4903235139246071
Ni 9.533873231645558 9.081799863914888 8.978581337116516 -1.240392981828438 0.21290533947660106 -0.1304821998836785
Ni 2.4138756016005964 3.7254902903140388 10.055463051036922 -0.38480338330290503 -0.6134857831081048 0.07733672620895067
Ni 0.5544335979239138 4.099090825575966 8.275555603876231 -0.031073581476352932 -0.874746631069958 0.17454936540622196
Ni 1.4516080668072393 3.0699430358376594 4.299018201024736 0.282134606087069 0.023850581365352473 1.2762660415759632
Ni 1.5250277244579173 0.8105468897734497 5.650361618960338 -0.2652838530783173 -0.29616408759694157 -1.2166804687028465
Ni 4.233594449409699 8.90350825094081 9.331161036692276 0.9516084745250192 -2.1790487528475313 -0.5597145029239199
Ni 4.7968562409863456 3.2476308687323736 11.028015282812925 -0.2854492722825987 0.6358073294234405 0.7083324931763608
Ni 4.500576711580218 3.8322107415727236 8.631982775896182 -0.9301135378760369 0.8110776321560871 1.1675891104928342
Ni 1.9939976454864832 6.473172675484318 2.9575442651556627 -0.4374107250859757 0.19493949902679975 0.06239733129029899
Ni 5.135790510768474 6.595795765141023 12.197807604238312 -0.38117401408043383 -0.7318133499071203 0.46312278514009914
Ni 2.293073141106281 0.616538416887308 13.653331881529551 0.232973828091702 -0.890308490063957 -1.158907009337804
Ni 2.4943362638690902 4.2015383716576125 2.391028563397458 -0.6981979758455201 0.07963323555261125 0.2656787745238908
Ni 8.163236717943196 2.1220361780088703 9.00113577420427 -0.19742087068775677 -0.8971401682738097 -0.6721331604376682
Ni 6.8370012623848435 0.8499858045575145 7.229167570641004 -1.2959275245606325 -0.7050599930726761 0.5946126003526857
Ni 0.3060765578631324 8.276914573501015 12.093450255321015 -0.10006450682376959 0.5594432515404043 0.2561368964717266
Ni 3.5911352892690735 1.4710126296655726 2.009885421605628 0.23819162484721562 -0.5126412035852009 0.39295275188291684
Ni 6.8766371023640245 4.170866343625915 9.3193195159973 0.45914914520433175 0.37145035903476675 0.9837914870154669
Ni 1.2794564327940792 5.8640143089517 10.032840804801792 0.4092070089582501 0.5182891458995977 0.6283621859993049
Ni 8.023159739530719 5.097102141067681 6.9036966677362654 -1.337025580152523 -1.281110257042142 0.37503781927570895
P 7.064756397245292 9.158219844113793 9.206165555769882 0.8606618708421178 0.3792541713499017 -0.05175604952636893
P 0.419741408926934 3.266923964499132 2.4179478660128 -1.6187012443253028 -0.10027636572425956 0.018232463847626664
P 4.432238095520497 7.337005479492726 7.824232781228834 0.04020665412587269 -0.29998834643903816 -0.07333480413840919
P 1.5712587006886138 8.082450943324277 6.45263207718435 -1.8459746795981178 0.977812900834529 -4.493205120165895
P 6.796863820493576 3.0353139260550517 5.04168720538364 0.5318545432888582 0.3825271856742186 0.6681386945662945
P 1.0759918349726656 4.364902683284949 6.181637928609563 -1.027408195264153 -0.45650425138231704 -0.4559422082312599
P 7.370046183220391 0.2160938192968516 5.153385591173574 -1.4114770143938788 0.5838489340782784 -2.290797380877448
P 8.624626876744669 5.573754002490618 9.307043273645181 -1.9081568095538168 -0.10770299720563387 -0.5954644068300197
Ni 5.76388899394453 0.6818070434665705 12.735296346457979 0.17504533120603402 3.2020996995842532 -2.008572271959102
Ni 7.584453133864742 8.572246632628756 13.507521779040403 0.38748632945170686 0.12328002570828445 -0.6440130051626844
Ni 5.370177937577629 5.483920815605533 7.030405026299192 -0.16672241316263545 0.3280336826120286 0.1878381120953281
Ni 5.421703600658134 6.2675344693771935 9.770791890325892 0.28434138393040065 0.2257775674535789 -0.7958603009857004
Ni 2.1237824957768776 6.139012912791316 5.629098342349993 -0.1301924365574016 0.11509877544907274 -0.1765244868547218
Ni 5.771329422307156 4.871920038237754 4.341489020699639 0.40493717793830264 0.8839596650277937 0.6764104476567835
Ni 4.976253235951875 6.891796626818213 2.8299385965055586 0.0287233360766215 1.15445565843467 1.0737348462448346
Ni 6.796993865433747 5.388059116851105 2.156184121512846 0.163942279314337 0.03340222960952957 -0.47118473621262724
Ni 8.188028856894318 3.7365441102285515 0.737716149923259 1.4608015716606197 0.6089002206199513 0.8810365778437277
Ni 3.3012093840827164 8.023169028455017 4.456192373499946 -1.0362785011705895 0.5972760061174616 -0.3574638149476876
Ni 4.43960421248874 3.171768223991345 3.533277366494684 -0.43053842344617466 -0.30009581855118 -1.0746442454329816
Ni 3.9433620097215103 4.651670354210017 12.99378388735806 -0.3949247880076231 -1.4346017733368002 -2.5308186027342345
Ni 6.029868052290876 8.379408564204152 11.019884687374965 -1.8328561399382888 1.4510524626936558 0.2539504303433691
Ni 5.235655735895301 1.563521026748455 5.209534351877148 -0.7657387990099715 0.2139607773243089 0.6317907520648797
Ni 5.238656058443526 8.394735289295701 0.46754314225640703 -1.2706566658089857 -2.1369983606447 2.3193993608848573
Ni 2.5106754817091135 6.534944022065417 12.112999725398396 0.9250006421295037 0.9341766522018169 -0.7949349609579536
Ni 1.3938030909013472 0.49030379346357517 2.35160265310741 -0.14462146749853802 2.7740053668031965 2.3522290058203685
Ni 1.3475906925192467 8.027209710524607 1.2044223601004245 0.5491737512935961 -4.0149647626580665 -1.3051804106174683
Ni 5.891407346706235 0.3657337452740276 2.9905812533136085 -0.8556834437909198 0.4190070257678074 -0.04872266201668383
Ni 2.263692273551993 7.865563849892383 8.210338995273037 1.5453903514462932 -1.4203136388489022 3.083699884786405
Ni 6.913049685611831 2.7684152642032136 2.8675847489001267 -0.1933626414579831 0.07756761127283415 -1.0014295118122043
Ni 1.895934471673451 8.207052573856435 10.352954785063927 1.1969613930073644 0.8600391496564542 1.8765463817373875
Ni 8.943162668768586 6.4551893180435655 5.252210456779036 -0.27739503451955455 -0.48729681128314145 0.42552271539913816
Ni 3.236939316865479 1.6181491905444618 9.143967847563509 -0.8768729333843415 1.0203248060548105 -1.5264716601649195
P 3.878543895970697 8.391688522125987 12.156274037025069 -0.4032340792042668 0.17831397465497678 -0.07573955692515988
P 0.2069014998116402 0.29945262594629307 0.349543150222771 -1.023464894345689 1.1707798495159902 -0.24311014519475554
P 3.5280170486647773 8.407015247217538 1.9155071640615764 -0.799788689505829 0.484390950490256 0.4866406657563812
P 3.6948925736767246 5.736941824556295 4.240734845517502 0.4040851143506525 -0.5309114626492986 -0.39802528130981774
P 3.8020867600746024 5.264915847433717 10.626342689430285 -0.5541066698188393 -0.17048316575664835 0.957100350877526
P 6.586367506978646 6.5626157275488906 5.556553701368178 0.8000437429394286 -0.3157844329310303 0.4631266417948411
P 6.895735130720528 3.1157560104749495 11.666544299083105 0.978406825664786 -0.07719171599065415 -0.7210008326726486
P 8.866111041717426 6.605354068243572 3.1345958067359705 0.6677296320533339 -0.3493234452287403 -1.064576062563702
Ni 8.211873525567052 9.148698696708434 2.2345064734079605 0.546408272733317 0.829870596492874 -1.1874064023290778
Ni 1.4000173812566488 3.01497118184263 0.4993530635145987 0.6607969094892426 -0.38497230478060146 -0.012581179099120267
Ni 1.65846312199739 5.472151748520082 0.3507469948117801 -0.9141870964537675 -0.6882328942130083 0.6190645627474629
Ni 8.878957624021435 1.4844537031246479 3.9864756229578284 -0.40521100042497954 0.8645740614123304 0.11772567154895854
Ni 0.008670281939668895 6.897212069683895 7.635924921184319 1.6209764135127245 0.3395941337561184 0.2939431686862228
Ni 7.409068954195909 5.445789781362613 12.13670970466881 0.27926859739318355 -0.8046853554764979 0.05976323610156159
Ni 2.560882117539315 5.377293253589827 7.898789403213576 0.8631591833426747 -0.03975234019727347 -0.03267280764267277
Ni 8.720182040997265 2.091234105037002 12.697569380422017 0.8189866025905186 0.5985106498555112 0.971406997308185
Ni 2.246795720254095 2.585293410594222 7.048772016313448 -2.365691044862545 -0.21198514165517682 1.8934074191587846
Ni 7.051798347849708 7.234483622016697 8.225742818436261 -1.044591134801343 -0.1269875564668587 -1.5060727847935933
Ni 8.715166021876394 2.4686059435638805 6.6934725197032625 0.17931979021167183 0.3950119484047907 -1.166816751103184
Ni 7.088303820340492 7.754951339352875 3.6896777715758784 -0.2042908583347127 -1.393662354809961 1.1588496737373075
Ni 9.119819431066233 3.6270091149076005 10.590301663154396 -0.3772345698167116 0.38281437789733425 1.0869631720096504
Ni 3.4904526388040304 9.50377711692033 6.988245385588269 1.018450214739917 -0.5958675558057093 -0.5823504951558809
Ni 7.794150599890054 7.275252710760222 10.443554308203588 2.4131788060308637 -0.6969427632821804 0.40719769183770516
Ni 6.041358451647391 3.188423265257497 13.729736999449576 -0.5274268465348078 -0.16087803856671648 0.14110008460884088
Ni 3.823859998628903 6.038246662007591 1.0746347231327409 -0.6325307155546978 3.359856161802852 0.3697490600729439
Ni 8.514720324451801 4.14888874873706 4.35516603283588 0.4667272146619059 0.13296897086127424 -0.3654514611388545
Ni 3.836112089777845 0.958394053361129 11.125765419877117 -0.7999714949405965 -0.35586278900915486 2.4244906314992565
Ni 8.791576713150999 9.181618644420226 6.516421907015385 2.03302886233957 -0.8722115233529303 2.2072550400784183
Ni 5.742942469652744 1.5008486545104585 9.853926833899754 0.8674290143626223 0.2643628839259447 -0.8981038177386597
Ni 0.043646797491018005 8.499189243025697 4.323380262780864 1.30149242024292 0.19957211270280467 -0.9783260930255215
Ni 7.865387360330723 0.8151365472690468 11.083456227485 -0.8408795460088679 -0.9532182422143003 -0.49740458914110464
Ni 3.577266925292294 3.726800028640044 5.750544525298154 1.165235008438361 2.00681646561026 -1.03508036709743
P 4.346092611581683 2.169177468820762 7.311242647952474 0.07143784422601246 -0.6078586667293144 -0.5971078559707136
P 0.2934547675271328 6.1654770581160605 12.279500906761138 0.004054115464715598 -0.6950152072421644 0.18518267675035205
P 4.355957449186063 4.136683102209607 1.4108640581593181 2.046134289373276 -3.0000747544655817 0.7157161872349415
P 1.0647801033450885 1.8396064347309264 8.909693745630788 -0.30523802487375173 0.6832426400872684 -1.1402261450988491
P 1.611544765368648 2.853696878182322 11.941944184452389 0.5689856438132007 1.0532876341340764 1.3118177134283278
P 6.472912585603976 1.1829259314902016 1.0886173408783844 0.2979656595820546 0.016536821312758618 0.7785264376929429
P 6.620151324650143 6.64282558886134 0.2786733022918691 0.11476298937620881 -0.8135818866351795 0.5623964206314571
P 3.0412216819085227 1.5913041993235029 4.3826556754031145 1.5233467413826924 -0.2605697354320996 -0.8178285777266754
