# total energy = -340885.49985305127 ev
CRYSTAL
PRIMVEC
9.12808267314956 0.00000000000000 0.00000000000000

0.00000000000000 9.12808267314956 0.00000000000000

0.00000000000000 0.00000000000000 13.35987167289631

PRIMCOORD
 96 1
Ni 6.670720518498553 2.2442759972148627 11.414326654963046 1.3528766882521666 0.010452562791891674 -0.2494862239244284
Ni 4.861808414831625 0.42986878789921107 5.765278633758009 -0.031138116165701214 0.2427468483180658 0.6599595011896119
Ni 2.4376818086519867 1.9032234517775741 4.778678967750357 -0.13055341944124613 -1.4626471095097908 0.7519875108621501
Ni 3.728739537462821 3.8001120143189127 4.597305794629092 1.638338558940256 0.9503789729932923 -0.835241116776168
Ni 4.18636682416231 2.888618210898795 2.0820690588620763 -0.6093679042849892 -1.1913846702505353 0.9750947305724174
Ni 5.157028858172169 4.930816718327219 2.1211865434917088 1.3062152796398858 0.7649528127735664 -0.15145057460522948
Ni 5.845194995808793 3.1498091627801363 0.09603838131453038 -0.005558467924383976 0.16035636173529158 0.8204421040901225
Ni 5.9766941519142875 8.227022067808724 12.126193858740718 0.14323949954934684 -0.18300880902748481 1.1290513594289524
Ni 2.34691215654085 7.008140087111602 13.714843506718573 -1.0366482258051823 0.11340056181104341 -1.3235429722850562
Ni 0.6740659886406389 0.6502763800996048 0.2318925455678748 2.244079665105935 -1.2263961533287138 0.5416633018491639
Ni 7.972302926400713 0.06530960447755028 7.145914799917258 0.6770341972837114 -0.09688148111009766 -0.1461376470327483
Ni 8.886580794975085 2.6983981002447344 0.8365029546717441 0.08510608574172439 1.221210495362716 1.6631718159338518
Ni 7.237528799657143 0.6489975357451427 4.903807635097971 -0.2981914024396155 0.32861732302964053 -0.7034787646284852
Ni 1.1671531373228448 7.928844125746939 2.6346338801298566 0.1850636346739845 0.6463735349750611 -1.8966408384944176
Ni 8.18081571433059 4.045182772553003 3.386486649180338 -0.33696543788401967 -1.0656870362396935 0.8307586555247821
Ni 8.099831366630468 4.478145980410549 12.650529172152616 -0.5838592184909236 -0.29043541264328043 -0.08382541925708789
Ni 8.459550840724964 7.627215768510375 9.296520240411077 1.4866858956265492 -1.7854663378004154 -2.3909822153291658
Ni 7.416347935302474 0.9194078509241763 0.5141082098091905 -2.1183401221135645 -0.057850335349564894 -1.7730653930329014
Ni 2.1572762431650596 6.377919017013342 9.187984601382814 0.6388635997512611 0.9400241121215295 0.7372293787163691
Ni 0.3661940229925683 5.728008673020905 1.1826663134856439 -0.140544469215687 -1.166642430308849 -1.5478560393779666
Ni 6.626914850710807 2.3119789849168235 7.243361644357367 0.17485198424830534 -0.2185121441404172 -1.1529075972212597
Ni 3.7138881472793113 4.37936187188815 0.13924707250854448 0.4825220156023174 0.09201001195040928 -1.621989171047955
Ni 5.891154891060157 5.31754618845921 4.490292719757319 0.7575300379469341 0.42798660355859836 0.016565360557848893
Ni 5.604560485656562 3.039414133352131 9.396465441024036 -0.046406098068365244 0.7014334520636824 -0.13294068872650008
P 0.4929602683358315 6.208008889861624 12.347086152120426 -0.3006586330331854 -0.1862193455449825 1.0682272861630442
P 4.370772346281093 6.4479861780758005 12.863057403562348 -0.20893941285031759 0.6346534183246553 -1.0378625578282579
P 2.6860843169887088 8.966990073479408 1.3949042718727365 0.256139724685204 -0.4879838100478371 0.054911050215582846
P 6.5731687011100055 7.928369465458346 5.755753479697473 -0.6597026479837993 -0.056542415171418746 0.256725421985345
P 5.179054921179428 1.1719727648685687 12.544291071482796 1.0918240996463777 -0.3587653073679305 0.06182937460197093
P 4.394916124422079 5.92219037146823 7.890326356135781 -1.0382983598140958 2.1424128467920522 -0.39421182110099845
P 4.838979080566746 1.614611740147454 3.856033385973021 -0.6671735024395478 -0.11300101237977958 -1.0178712023079954
P 0.6462527213455229 5.879963861948307 3.2108449990438457 -0.7628691907716604 -0.9351143335247379 1.9121649022719456
Ni 0.49080056402272865 0.31120462855894915 4.960480247939605 0.04962203390250163 -0.22132775921234138 -0.8788231151321768
Ni 1.7856172371959285 7.097777856996092 4.599255553045317 1.7805470461219268 -0.854748076460844 1.0448125067835297
Ni 6.05901119965546 5.950423530557102 9.229533807183243 0.0896134866937747 -0.17738606352406872 -0.7241663748848238
Ni -0.23259997195952936 2.8700243069013704 10.14624796096965 0.09847505084946266 -0.5858873046645459 0.8874697350635813
Ni 2.2964795008777337 5.800923795814927 6.93909070724488 0.7293736301173761 -0.683277864200578 -1.1240870734451416
Ni 0.5526287178450912 0.4876239913221378 9.323373233430036 1.0409692217780393 -0.4600274340442271 1.0728748122373846
Ni 1.7892867263500596 1.255567744155957 11.463357237158316 -0.027941977825906714 0.4238808089203409 -0.5172913007627027
Ni 4.22916840287803 7.36431786520659 1.6272185348508623 0.9656397558071046 -1.9468344286296728 0.9317438743906081
Ni 5.870680602073303 8.199263569008446 7.986130145730756 -0.4480638339244477 0.06965067041860264 -0.660231781014392
Ni 6.242659090928988 2.840211989544676 4.884635923480008 -0.315651764007908 0.06418296243581205 -0.12175741841617095
Ni 0.7626083886283728 7.641181734694007 6.622541586398011 -1.2517320609903408 -0.23585526340455512 1.5928146063665276
Ni 5.27458943234145 4.311138583485231 6.762112705834346 0.7420705088587543 1.094828176580024 0.3552889187835559
Ni 1.3568985876883108 7.7182410069307545 11.154958581151556 -0.03662279342935628 1.074378907586737 -0.2833239984094798
Ni 4.907439699113962 0.40665333574572615 10.27350073310872 0.4662597881071841 1.5412776148295004 -1.4399175291227588
Ni 8.325039417403392 7.193549698302411 4.487379948640197 0.7183896203020467 0.21517433801643587 1.0729298338450362
Ni 7.371802892834418 6.312096414300812 6.9733447495329175 0.5410328673540166 0.3579672369466674 -0.09535630271482287
Ni 2.8006782643542762 5.280504429783929 2.129242989082345 -1.5141288223288505 1.3177371642365563 1.1314306582944063
Ni 2.6459298821901474 5.590092474936918 11.44127366723148 0.02260308211149656 -0.31047947577834917 0.5734938160961994
Ni 1.381772612427133 3.671104824728537 3.6713056425429422 0.19841434494927765 0.5047090932223179 -0.4717128408019553
Ni 1.5599071418869912 1.4533824194275218 2.3936214673632454 -0.16255671182072007 0.7199963026675342 0.1882389470781726
Ni 1.2291693296441502 3.544909084539834 8.060344194660681 -1.6079494051254373 1.9924923356781041 -1.0937346864055293
Ni 3.7853701611250785 2.562627001541894 6.785825638482606 -1.0257958564717107 -0.1994769818858371 -0.8444824328687779
Ni 4.279710595530823 7.091680297904153 5.565802647476365 0.1433207464092435 0.21006092804927048 0.6474104608800075
Ni 8.460344983900113 7.941358726817371 0.40755245186931294 0.32437577414446717 -2.116045412542117 -1.0631634984868916
P 0.3819016273120418 5.930122675137234 8.115520714784996 -0.945121581249095 -0.11352397476278513 -0.27681165121225876
P 8.766135746744347 1.973902194365721 8.161131004477646 -0.30434533785615325 0.8498802068455815 -2.14508345164568
P 2.1810092575947615 3.6018409349237 10.570103168135672 -0.28417606199712997 0.18973327223551195 -0.4564818827848139
P 3.9575349246476197 5.910460785490474 3.7747112992214005 0.09340894918046494 0.8415686016560926 0.322008045243239
P 6.99417412092797 4.414568885986367 10.445602512862198 1.648194111578097 -1.1128904333983736 0.20932327855229757
P 6.57444663265622 8.018381486724227 9.998394019497349 -1.3135640066954732 0.10955830524681777 0.9511590456924264
P 2.4086818906353855 8.874714287760233 5.8727992300152785 2.298928751735331 -1.1013068423258323 -2.026199241012246
P 7.234206177636985 4.264986998501934 1.4047908979992019 -0.11107062812628614 -0.5352777100377942 -0.6193152453056883
Ni 3.4179192011759834 1.5092554122445236 0.22931294946101566 -1.9579804179441636 1.901107358906203 0.5387594979388076
Ni 1.5687887661331834 0.9599547932690746 7.236361317908852 -1.2406477781517213 1.6364999630696204 -0.035149808428255595
Ni 7.136453542434032 1.1246527853287325 9.200462690123354 -0.5301691851666354 -1.1762246746806453 1.2606429903267258
Ni 2.5502036812961926 2.124688988736584 9.016149361637547 1.9346034337811195 -2.697608893020328 1.7957839176763393
Ni 6.791649355100357 1.8922788808924924 2.545216097032966 -0.48238960378951107 1.0542631106734681 0.46649118739169976
Ni 4.3355562041004045 7.195758694260868 10.432723701301095 -0.46452737879710965 -0.5077594500128675 -0.30069488558775953
Ni 7.501394279703063 6.344437210502518 11.236253283655756 -0.3256548979672069 1.288392392525852 0.9616789713871435
Ni 7.884746359320058 4.297775070744815 8.196201097338767 0.5124123754038465 -0.41891703715716244 0.4357731894825527
Ni 3.591133694182915 8.848918326691642 12.111872810148887 -1.1587481151624366 -1.5006804101334283 0.5241679732778779
Ni 0.2519177328970594 5.130840389557241 10.458227563730551 0.8727712525111421 0.33143936585946787 -0.9057937301837498
Ni 8.76737716596067 2.6557882112609468 5.760188814971085 0.4368042018502284 -0.058440146414763874 0.16527513919314762
Ni 4.129142875139309 2.7416013145892646 11.30410779752677 -0.9107083938765478 -0.39603781856614373 0.25613458247888143
Ni 1.2015933924933313 3.5146860034718563 12.461526747700448 0.5829747590034412 0.20973774038189685 0.19015878980870476
Ni 3.4673021273547096 8.507774500429624 7.821456799493776 -0.35318704194920464 -0.20862548115432455 0.5381540031443248
Ni 6.224539847220159 7.777217547788564 3.5177740337724592 -2.1425807398284844 0.3295467768224454 0.45123863210800347
Ni 3.4428206101622245 9.02933487676974 3.7262019305353373 -0.28352942955206656 -0.6676949221606565 -0.1856328769138932
Ni 3.535598440417413 4.256917773595835 8.955776224161374 0.4448705237981306 0.7458898826048445 0.05487582610227323
Ni 5.112931091745288 4.877234874210931 11.436945130522801 0.4493966938032583 0.4682575352635033 0.2230416565796546
Ni 8.226775609581953 -0.23370994678824156 2.6344732258783323 -0.07101464064566479 0.9090906557674666 0.25910857750554084
Ni 4.942281589913259 0.33987776122301816 1.7103169464517212 0.36879646635168745 2.5853347315042443 0.3817334861283297
Ni 6.462518085372757 6.184065929535044 0.2525566986701667 -0.564079464760835 0.13009961973327916 -0.311511002366657
Ni 8.21665256611944 8.895909695262452 11.152726764986918 0.218513686802314 1.0853428627974082 2.0166054266762234
Ni 0.246006386687569 5.147699957884802 5.5019553618109835 0.5862950816259258 -0.006544228876420987 0.23836028921459593
Ni 7.4681954437488995 6.06624976905652 2.5214219244506952 0.14954461583176823 1.196286478427527 -0.3747190024837095
P 8.735364980727992 1.7774476033826276 3.5407932321527755 0.6775527887913428 0.7920792366767133 0.2960933822600062
P 2.1073638882029018 3.571773031257762 1.215123949143003 -1.6801549807554097 -2.7552000611712355 0.10297371005076458
P 4.763106459051484 1.5038242031731113 8.190910460737438 1.2281524738981882 -2.2879066895932145 0.7772694253573904
P 8.807887595975677 1.7065954272274944 12.100596889870037 -0.9516591252572966 0.7851732535854994 -0.2622509797892645
P 6.559074941771751 8.143618778253268 1.3674360460950985 0.08349940337623685 -1.092986495385595 -0.052835912854109005
P 2.1354875103020987 3.7538235080985216 6.051500613396708 -1.5497931084996792 0.2670183192709208 -0.8535885089351042
P 7.338339342488539 4.420766853985508 5.877689143796044 0.3268005815358759 -0.32286190860310204 0.40068920129522606
P 2.732674049930708 9.079530202288561 9.94257670798343 -0.3538377881593261 -1.0352731998345266 -0.21218465926049265
