# total energy = -381173.77346024156 ev
CRYSTAL
PRIMVEC
9.14713353607699 0.00000000000000 0.00000000000000

0.00000000000000 9.14713353607699 0.00000000000000

0.00000000000000 0.00000000000000 13.38775453647170

PRIMCOORD
 96 1
Ni 5.534262668493613 2.4127119306750853 6.688736093290494 -0.23213899089523246 -1.4381452677136843 1.2393203175895495
Ni 7.9021719398654255 2.8211863189656095 12.544821440837016 0.5643900540227184 -0.07981964053180447 -0.03488986989864958
Ni 6.534401085308769 -0.11262865332813554 8.115241606004 -0.17085648993566704 0.3884636057633116 0.3552518948980334
Ni 1.8849955116215005 2.932506932220171 5.189723083687402 -0.8614943940457422 -0.40737355529393715 -0.6198124966570809
Ni 4.85258170036026 5.808383961674607 10.692839763016531 1.3106874564786268 -0.744461377688434 -0.49728503284410486
Ni 4.301174205848228 7.709002777111949 3.947205755952221 -3.59710522023114 0.7703109917616863 -1.044289030179892
Ni 1.107992266518075 0.5331662811223665 -0.00736435708555851 -0.45459032218905576 0.7066311942145379 -0.25061545243286515
Ni 0.7615125747216176 6.820706360154108 6.736436564449071 -0.3135378029886987 -0.2105070144477536 -0.8624207625147535
Ni 3.7736224351955117 3.4041788650444462 8.530436393190016 -0.4441896956810221 1.7972083088276918 -0.6516172998725036
Ni 5.111491310727586 4.628111047174811 6.653981560006951 -0.9630856219266833 1.4468767340494113 -0.2319011638528135
Ni 7.950020594584785 0.33023438291066465 3.8304645514557003 0.6733066119204791 -0.5197482469436274 -0.6531882439040493
Ni 2.603283307548177 4.631175336857661 6.769223549342222 -0.6575850874201643 -0.3606954345111078 -0.05541267244234972
Ni 0.8751995513820089 1.343219948560334 2.292050264811194 -1.2569614277100805 -0.4460879411449995 1.1391794490018896
Ni 8.120349365284307 8.466175037043978 1.5790321324256797 0.9896703143937472 0.023299593957888904 -0.06351858937893577
Ni 6.444649412568117 2.1183388841871413 3.3785604885824867 1.4695466648431015 0.35916897056425234 -1.054416862642513
Ni 2.8567961092203347 0.6243677745040099 5.164808121782491 1.0920732395427064 -0.8169472035629866 -1.5952800371878848
Ni 5.520002287551637 3.429077362109271 12.849473121105907 0.8746221896769518 -0.37888264694309587 0.2718743618116415
Ni 2.5187729422352034 2.1818748726560138 10.256760240893554 1.079678208312463 -0.4125990653589346 -1.8361072998857348
Ni 7.315575423234223 5.5431353878738046 6.8100828794446695 0.3507174973627895 1.4147693119919056 1.1683437292706715
Ni 3.3081156702704613 6.817385950736572 6.381929348396886 0.7792435183646258 0.03336777682716834 -1.4695194111495917
Ni 5.47735835172643 6.342430197028286 5.052565477483061 2.138781163576736 -0.45486491600668116 1.9841308510872862
Ni 4.593022643522839 -0.27144850080687766 0.2904635616806313 -0.7111506793514462 1.3221255231122393 -0.38458355398261507
Ni 2.1357641732791657 6.44378043489686 10.976914052030086 0.6823108723016185 0.40048068482884575 0.22969541445074637
Ni 7.917026884477209 2.397253275260114 7.953142511207939 -0.3638776888938314 0.1347448318147744 0.11795115729620331
P 4.459474496150892 8.058112269755627 9.42870044139383 -0.45995492893507883 -0.5833046315390341 -0.7662579047382352
Ni 4.534215723012275 9.199729398584612 6.718818270842694 2.5812939857759676 -0.3268779717410306 -1.290611768774674
P 5.513919443852846 7.24049575243772 7.242132174599695 0.7137881169742932 -1.2504349394454723 -0.7574192234006827
Ni 8.199453774768731 9.145194189363274 12.175426350492874 0.891699971094845 0.44486641003307253 -1.277541308743961
P 7.993606685148301 2.228113631900205 1.2988179336991763 -0.2611726591234212 -0.17431128125348688 0.8512907140398629
P 6.498343085518345 7.468689288909498 3.471739592201241 1.7448416223005174 -1.2172286278968327 2.6343019054315664
P 2.2597352720005355 4.380809149068787 10.218953309200561 -0.059623882310219894 -0.5371093639298944 -0.48214380632729226
Ni 4.565691008978498 1.2746621838649408 9.061287534853488 0.7560794215433365 -0.8899973865814415 -0.3267355326258954
Ni 5.861281834020631 8.362153836227966 10.993568237778039 0.44934090086465833 -0.3397990506780728 -1.017078531203371
Ni 0.6746221253027411 4.930268304170531 12.040062497144671 -1.6354440110012802 -1.4658193365901853 -0.0265281281975156
Ni 1.397901511915779 7.91920390222204 9.383918820497334 -0.859405115616881 0.09220181624624121 0.4156476223772712
Ni 6.806720393213579 6.350415644470459 1.7050915216980775 0.18556191446664172 0.22174093549036003 0.18925736104035792
Ni 2.050503743028898 6.104888290240472 0.0687068629695139 1.1384466846009234 0.8527338742442926 1.366057448608499
Ni 0.9132113788627528 0.4705532384117013 10.78556333939288 -0.17396469654734556 0.16449660915591025 1.4454479720226847
Ni 4.457517009607222 4.426983878379306 2.184104943774458 -0.14700308035683715 0.29640140041872826 -0.6599669573887795
Ni 3.861087324590755 2.17677991936244 3.5366028297237895 0.8834184478123431 1.4091563366805022 0.46172821878541775
Ni 4.68549101487784 3.232496318604442 10.552830080623794 1.6848379880533757 0.06589326025869942 1.0021838734797257
Ni 0.7945401292227058 8.932514191106756 5.354352275576824 -1.392998238863401 -0.8716479375399763 -0.6665350975246004
Ni 6.7368088527777035 4.041990181479453 1.7325631073831576 0.15609424402482797 -0.5071794091396814 -0.5714384762290674
Ni 4.4212303314822545 6.871161947887234 1.685451711614358 -0.3390567731954096 -0.07529552740920581 -0.7208447667107585
Ni 5.132163832170093 2.0709750275370085 1.4343775357017456 -0.7332971335414983 -0.329198135233775 -0.408061068279265
Ni 2.134218307737669 3.6693085261112874 2.8221385355506383 -1.1565698765641952 -0.2843110449130975 0.30159657146642255
Ni 3.248970305824776 0.44325727768754886 2.4283379786309416 0.3352638818118806 -2.4002276451868343 -0.20100653115648612
Ni 0.5933964955871145 3.1755645604371137 0.5694950360608887 -0.10164856348143785 1.2128492678822145 1.6611437297602294
Ni 2.680009462353375 8.594628231122352 7.643965744055149 -0.9991664268096405 0.17203456940416822 0.47257570302288293
Ni 4.011749758519751 1.8309451004693886 12.497174023052052 0.02602907707391001 -0.35015905375615825 -0.04974647529550787
Ni 7.68664718312722 5.559463020960033 4.460384635922366 0.29727351861103646 0.44095087702875024 -1.4864503825769755
Ni 3.3622301113562445 4.5494548472260865 12.17177115599357 0.8702428296623335 -0.0838902110567523 -0.0532460038083341
Ni 6.446725811845749 1.2852545643208801 11.62776003353393 -2.0347119064689476 2.144254270876165 -2.6682258118725204
Ni -0.04750563721754828 7.334070926931899 3.504846726762749 0.26874584348498876 -0.25575148810784987 0.32898833321581405
Ni 1.4818264606923277 5.864428447903916 8.686911830383043 1.9522990512886698 -1.4705067147635256 -0.15795238027948927
Ni 3.0714427411539034 1.832436083210596 7.066243776230812 0.30381209106050255 0.7317706695946429 0.5926626757151664
P 1.8877030631024658 7.2424075033144835 4.6019337808632335 1.0324912662140155 -0.2358382941236906 -0.2784023927381463
Ni 4.194793044619752 7.174023534153341 12.27653053047348 -1.576885079620465 0.28653247804444854 0.4636979409172788
P 7.751646712937155 5.654666385196144 13.074119399252286 1.9612578031438546 -1.1167548014497863 0.2996330199821485
Ni 1.8311006017368763 2.72599210186288 12.233944221588578 -0.581642927565895 -0.3473861189967114 0.11628122579294813
P 2.245712716526481 8.20552747133414 12.433327946761542 0.3815547944586203 -0.31913535168113427 -0.04546584564228299
P 0.21067403190592215 4.502914232580301 6.715860087907071 0.34073981732478736 0.723108880154587 0.3759572457661848
P 4.0289097807437075 3.1794246507241652 5.400392542026633 -0.2945352937442669 -0.39131187384538413 0.6683932337792617
Ni 3.9628125949279758 5.870520438736088 8.584669747009759 0.18861792768414612 1.3775901318384467 -0.5589799387507406
Ni 6.018612528184843 4.409092085484819 8.700246521426797 1.231285620210531 -0.6449506864856054 1.4581960157169724
Ni 5.685034868023189 4.016981918814048 4.193566414033274 0.43643139189184194 0.7019181050095847 0.25457160886713576
Ni 6.842897305737966 6.819700175482127 9.236734126680037 -0.4274582418589542 -0.8870609296609367 -0.5783686276899975
Ni 5.614373262650019 5.631359489339724 13.095151403036692 -1.059802809544775 -1.7797482043697155 0.9579549855683374
Ni 0.16499782136470192 7.376047122020246 -0.2994222641146097 0.24850817628187521 -0.3850936608498142 1.9363363573118264
Ni 6.82657881978512 0.8045159928887224 0.3218135319195267 -1.0119082998563411 0.10296085453495817 1.573074447625123
Ni 7.231083352188012 4.603358904244092 11.172080948714113 -0.4779279684737318 0.5970957717858555 -0.9936218428423274
Ni 5.812372111829002 8.807921087315437 2.1816279000547096 -0.43615654096390044 1.7026747591244804 -1.07397755838326
Ni 1.0878502788117035 5.184951938915538 4.553576545527854 -0.9536884969824995 0.05201675938692332 0.4857310094579183
Ni 3.6065043083129456 0.13806042826910975 10.975789869337484 -0.9618622910425434 -0.6496632614699263 0.5466165320893812
Ni 5.507717687420095 0.4004368021880767 4.373872877825489 -0.8574737029221232 -0.15819046443222434 1.6266017301193019
Ni 8.782739029115781 6.868271453738636 11.019152769846485 -0.2585964137558127 -1.5171326421521807 -1.4882930922126691
Ni 0.17273172263887868 2.7085210771039474 10.389031448445426 -1.610048453746311 0.8845355921359219 0.5075131383300162
Ni 3.6045468217692744 5.051824559679147 4.41059587421276 -1.0583174832484998 0.46118880134217993 0.14277824364221217
Ni 2.6197938833020378 2.0757772725623695 0.9946126335393068 1.4815732569903324 0.2570344685853315 -0.10044477298132379
Ni 7.564212802813967 3.54986525841383 5.7113100086619495 0.05816786658998369 -0.9181095714366253 -0.05380419030464927
Ni 6.731476074016207 7.488437949880459 12.888176471870306 0.16207745819145633 2.085147694521996 0.9844736006841561
Ni 8.933767348380043 8.956360767832694 7.89315195163779 -1.2149395747523397 -1.5103405589310117 0.6185516276667863
Ni 1.5021056553994239 8.08444686676137 1.741545592363928 -0.06502217050765575 -0.07046648145167864 -0.119138235625769
Ni 7.829543700815203 7.809520625842793 5.843594022200555 -1.295194245939034 -0.2024283512046772 -0.2303003950245969
Ni 0.7894506642091611 1.4536624370102575 6.8270581295743185 -0.4090861671096696 1.8352079279999167 -1.4758404682716129
Ni 7.18087473705619 1.0422152303707006 5.880531061508955 1.487403490518864 0.24251904857797588 0.971338605964095
Ni 8.662134075478855 5.059444121786053 9.024711807313661 -2.0840053533874365 -0.8669986116934231 0.07594910183280468
Ni 9.135772641980184 5.489551480524156 1.9210754645320418 0.07078375558178131 0.40285509859829327 -1.0500164195819723
P 8.898111822458409 2.2089137989321426 4.709035736202181 0.4210834486808619 -1.7427202050821406 0.1751062663509565
Ni 1.1498769902726054 3.2550622966569485 8.34451999249484 0.5268876862018862 0.5387402146650979 -0.22894413810701858
P 2.74735065830901 4.257341142683408 0.8886019312127881 -0.04697919696301586 0.31375428987487897 -0.5207453207495741
Ni 2.326728876887668 6.042660341845176 2.597799601085884 -0.009393782510074146 0.5379940805276928 0.29315229735381126
P 1.5274798034000938 0.8926870409810286 8.74185591646654 0.2361727946449739 1.1796319005899814 0.3562726228530639
P 7.985108998236758 8.492326691382086 10.080430035982339 -0.33625041409486606 1.4131348617122759 -1.5605161513441383
P 7.012503452900339 2.6763048733338106 9.868114093634412 -0.40323510764553133 0.3996928988202278 0.9834929819384416
Ni 8.702930290360971 3.428610858306808 2.9639822181863944 0.3018662801880414 0.28438072180876833 1.1492041802277435
