# total energy = -340857.8458882723 ev
CRYSTAL
PRIMVEC
9.40065787791470 0.00000000000000 0.00000000000000

0.00000000000000 9.40065787791470 0.00000000000000

0.00000000000000 0.00000000000000 13.75881303738308

PRIMCOORD
 96 1
Ni 1.901659096451565 1.9630077902250729 8.088558295351273 0.9170101677248594 -0.5716922441110864 1.3726726399321714
Ni 1.3174270062529794 1.646920067356481 10.567194994262376 0.5071339006137267 -0.5042545221834025 0.3936217529254834
Ni 9.09464773119716 0.14925518631801446 7.362286023810333 0.7321136547563586 0.20159917043516246 0.6336542876361797
Ni 0.846648636640409 3.3851111227373245 11.94355754539342 -2.0441095456337637 1.6594259757381744 0.06369728104864514
Ni 1.699582553185349 5.402614527091271 0.8101928851151772 -1.7595192789173504 1.737454328697511 4.893044057645683
Ni 8.00196225452482 2.883200594195896 4.105464740033733 -0.37300073424102215 0.7375726209884007 1.1982780549362586
Ni 1.5330875002551316 7.923024929729212 11.277356418210754 0.5397691701502446 -0.7720040631933931 0.04189818289568268
Ni 2.3529564825969516 6.753818097354089 4.654070216738166 0.8027588278777464 0.8402352275566497 0.47467192343027925
Ni 8.961891639644987 2.632231228938259 0.4747341664774021 -0.7294150248782728 0.9105201891251417 0.2264668802111197
Ni 6.708365916171909 8.650353835223587 13.918553054634732 -0.5377495686170545 0.32378519174831977 -1.6857108775766325
Ni 1.8803102022499658 8.676544068268791 9.01224250368426 1.1916294392714897 0.5665559513257856 0.2680362190124739
Ni 9.163958782253255 4.361482258609846 2.121196421791779 -0.08546912550809796 0.0706783403521686 -0.2410979998607332
Ni 9.121185788586466 7.333791689501894 8.478456224170227 1.0028130224232923 -1.6287468014867625 1.2176037518480642
Ni 4.860544387792805 2.5487627870113547 3.4559253389994233 0.00741660417904529 -0.6056493177828215 0.10066151697782019
Ni 0.9988763110018166 1.8661340100632586 6.082083742902793 -1.3301522500714575 -0.5501499991639364 -1.8202937298922457
Ni 5.60188967428876 8.97781635421016 11.609232546104264 -0.05127936700026653 1.5452782513484613 2.5339162678229523
Ni 9.136753278149587 6.013779502313009 10.720963436461583 1.4339165743443176 1.107898636610737 0.37958044434106886
Ni 9.218727015462642 9.196456856782065 10.1298162222759 -1.1072460906284027 0.12458331790074029 0.1952151212856896
Ni 0.794984500685698 4.9638200160177135 4.2865853366006075 0.6972163286585411 -1.2093008884093237 0.5582888262209869
Ni 5.4969313282910255 6.4322967941911235 1.2942355830934262 1.0120214283954376 0.02428844023371946 -1.5880637219451037
Ni 3.4817686877663174 4.346723225630317 8.366638218067294 0.7262209434210073 0.23788103558533225 -0.33065389384369503
Ni 3.071270157118483 3.485763967394534 11.59413884970176 -2.2662580009751876 -0.22257937223125537 -0.0992083294710614
Ni 8.412225768723935 1.510572924467888 11.951799102217086 0.6190103124707598 0.022677644103173845 -0.025966599267090763
Ni 3.263541814144158 1.6969409683017518 5.948499453385336 0.8741496209159075 0.19063752921733618 -0.15119937782637186
P 1.0486903974722148 8.074582337178873 1.0337076288335054 1.1550624387807331 -1.0696118252153965 1.75039289113605
P 5.168491140877784 0.8037524943544921 5.900260917187148 -0.1458540543540585 0.22263105140479722 -1.1721821291801553
P 3.550337086844461 2.61641932226847 9.64503839284606 -1.0683666399543859 1.1349137317470002 -0.29074137391947347
P 0.8161444416625274 1.5136187376432813 13.148857263896954 2.5773319158044257 -1.049384185314612 -1.2656579270428139
P 3.487042456875563 8.355897026295057 12.219311745332924 0.38519033432867855 0.5809631278900511 0.5028987794864566
P 5.292043988298135 6.135188999721048 6.006492112271142 0.6179998689283744 -2.4552384542050745 0.05817917944389336
P 7.703923794917819 7.903302349352744 3.1813537418298727 0.15429421470161167 0.5848092411090187 1.1403305318871975
P 5.95326746709694 5.2651863085385715 11.191941100022666 0.1320981382205467 -3.201281574558332 0.31278858352750005
Ni 8.576765484800815 4.869672426661036 8.851884200262981 -0.5767796859363228 -1.3307592875278371 -1.8514035639231727
Ni 6.821784854323513 2.0115433872144415 10.385826220325656 0.6293356056561679 -0.7453224401371487 -0.6726386393191771
Ni 7.0160400501763736 6.2348829772674845 12.79787053845944 -1.0139757239083311 0.8820801886168937 0.04518482406675444
Ni 9.188691913316402 0.4469016384885537 4.049879589648601 -2.844438938134411 3.738003987462453 1.2533001768084093
Ni 0.11193645439308773 8.775156970151123 13.10178816954759 -0.6087492968643838 0.41765128307086136 -1.1856146005359773
Ni 7.012815624499955 1.7948300195220304 2.07262792249959 -3.40623423484676 0.09225812340547337 -0.8301732153349574
Ni 3.5438130302280326 6.7888449488711125 0.0848484585137799 -0.20956084848440037 0.3868839199810176 -1.108502074522691
Ni 9.123235132019293 6.880322751370347 5.549177364972764 0.6868673813240493 0.29500734828467906 -0.18449670642692095
Ni 8.109411774878973 5.847021230960227 3.774853940700126 -1.7393831702891078 -0.3672754017214707 -0.9306678677176101
Ni 8.445193876150183 9.354425512952771 1.466194298423454 1.09932657867101 1.7994523676668623 1.4700853109553909
Ni 5.136660513063334 1.5543423878772433 8.783818736385097 -1.1218594696662034 -0.34546550493523087 0.6338962284436567
Ni 2.1298600681573423 3.2730458793303385 0.20717734026920487 0.2877203277049626 -1.6462827534879971 -0.7722994829466248
Ni 1.4439222596112882 4.0043606637949845 9.37375514582698 -0.6303823017531273 0.10450377354204583 0.9829363381040233
Ni 1.3048207239437128 7.789629593436524 7.025332600558708 2.012542826571076 -0.9242611928603178 -0.9235811360741579
Ni 6.825488713555319 4.4529600611090805 5.565949078819119 -0.8500720111414135 0.5873829153734659 0.09604150170730556
Ni 3.0039990488372657 1.0952800582661935 13.08214079443471 -0.7056822000377072 -0.21655707729657542 -0.8024600656904051
Ni -0.19336683367670407 5.677442762222821 13.001252833114737 1.4455639287752589 -0.616247405013642 0.9603286280068365
Ni 7.056820104358029 6.6092171767864984 9.803443239545588 0.035702338497615935 0.4894909907209828 0.046181640762384984
Ni 4.235607448676155 8.915546395957676 0.8032956223781832 -0.3498582346862878 0.5886337570614314 -0.9227768950053076
Ni 2.0512517663899392 1.143242215120689 3.611688600815354 0.22366540620658257 -0.5419111561939118 0.8310347920043043
Ni 0.5864233835664379 8.08584432540147 3.401605517174192 1.3169180107693705 -4.041373077448266 -2.1515294643813396
Ni 4.4647860888086015 4.539934948450867 13.249035375327752 0.6399478339543753 0.3110363767230837 0.05482080449462171
Ni 5.0363648934081775 2.8279435267731747 11.523474103901046 2.482558996396899 -0.41738208856987474 0.46280936766473846
Ni 3.9914065571416137 4.641650067456284 4.854563689205814 2.320620891996784 0.06900635196638437 -1.486721376850175
P 2.6458057790162464 5.403780208676914 2.874133659604332 0.1735188672591786 -0.13901826237914766 0.6772123747327885
P 6.374792969518652 1.4303665108491983 12.722086194339841 -0.8155585507455761 -0.6825309587322246 0.6940561857630047
P 3.9640788444846127 0.27377066111231746 3.036088194745306 0.30158423017124836 0.11637815638212859 -1.0416973581933158
P 8.067484840427571 1.3246091089258205 5.780476793538448 1.2154591947012356 0.18502609656782973 -1.582819442827029
P 0.1449337038589765 5.092750039784748 6.669584441870158 0.268820405476666 0.9886323600475361 0.19597822470395926
P 7.340174736249091 5.179480510019865 1.040143319265216 0.36813749261144985 -0.020544142699938813 -0.08984822841240009
P 7.089901019679661 3.180139176822895 8.595460573263484 -0.5305602499574669 0.44562719945849705 -0.8838426798339553
P 1.4335533338938227 8.857450329834435 5.275293895965063 0.7596540262684724 1.0322626951429772 -0.49955994492121053
Ni 9.090802862096124 2.06345382040741 9.07297451429633 -1.4507267039231209 0.7528580863925615 -0.6117533737980303
Ni 4.967993908146957 7.9516123305513435 5.23317800828889 -0.22423387711554282 2.0114351953291942 -1.4363892042545263
Ni 7.167033418149111 6.506674799881591 6.904199482494363 1.6289787149919104 -1.973800672805872 0.6258538177551544
Ni 3.638947688669329 6.78152183632904 7.071727667733148 0.4360120449662362 -0.36732630956406415 2.048913137669994
Ni 3.322248923034069 5.734138130311701 10.82751143371845 -4.413532032514283 -2.6344546289593467 -0.49544515142188866
Ni 2.406483828957104 5.113986126090962 6.3964445649062 -3.001341279882831 -1.105058853169097 0.4255512546442284
Ni 5.090954514116537 6.497809979435925 3.425422084087337 -0.2386109717728213 -0.8409191409975517 1.0493307063688573
Ni 6.692347195027248 0.8749380366055666 7.253040977787972 1.1689116859589996 0.24950447875687348 2.1921364392694245
Ni 7.355751626470161 8.443840181405564 5.919729679798998 0.12702843700712316 1.4993575775569468 -1.7458096426407417
Ni 2.88864357514822 7.564220617141523 2.3641902688457015 -0.01974195851361761 0.3142795662507297 -0.5222856686535005
Ni 3.439522130944659 0.7417701962352389 10.57758272129574 1.034132144251548 -1.7589888603351769 0.43074359747844526
Ni 6.3760244557099375 0.2688578772683035 4.033231024421374 1.273703937275742 3.2564520490828883 4.519964647647925
Ni 7.802884521144254 4.119443518403516 11.371673219410512 -0.18412775312327645 -0.42898547713675794 -0.20232550707822572
Ni 4.893399687323667 6.947076823464383 10.882767561075378 1.9919061241573306 4.061002935864051 -0.33303242137820066
Ni 5.328283524690546 2.927186272738073 6.98394620393936 0.1818916647039061 1.1487616933736862 -0.6275515171725515
Ni 3.6964515133418003 8.974817544324512 6.823931024533212 -1.5377428622033646 0.9292169942036964 1.9712354831818568
Ni 6.343855404209333 9.115432585921836 9.586686628826612 -0.7162586900019728 0.12783293518628952 -0.16872941629033522
Ni 4.7141385408990555 2.0059123931031433 0.6571163313409979 0.41663004089519856 0.3374475197267608 0.03718612213199402
Ni 8.556253249156654 3.255852075942085 6.681334324240294 -0.9601463367927013 -0.4958015063200429 1.2319764756299687
Ni 2.719647947203636 2.9346409944914273 2.3135442241468396 0.4029312032518673 1.2296732814180886 1.1604944084295818
Ni 8.48911375008672 7.153505871360868 1.301118744843497 -0.17797073238294508 -2.7272642539929164 -0.48209109871248584
Ni 6.802316091711663 3.4053695406168694 13.604948045530403 -0.6756892532200427 0.5536484992354981 -0.4536711528088961
Ni 5.873380675848507 8.777920763588055 2.339947852127479 -0.9093261688170404 -2.709739100624959 -3.1752568683597957
Ni 5.7135412887460015 5.256189878881623 8.106018137359476 -0.5397288038306125 -1.2165845665549306 0.6538292199221579
P 2.327866126531752 5.251057119641608 12.775841976688149 0.42071835203195934 -0.9005322246744943 -3.8534935705920415
P 2.3638330438436492 3.324119653965869 5.035821535378739 -1.5534173355158278 -0.07774938826633707 -1.147951538767565
P 6.038296418243335 4.4171153523505176 3.5177017627095992 -0.02335075891079849 -0.32923387356771683 0.12946352881117704
P 8.92892353221874 2.002650364794929 2.489161675550519 3.447902046899191 0.0462618591810171 -0.026031905287387427
P 8.13675828885187 7.912232974404052 11.52711967905357 -0.42785496307674054 -0.41604022982999966 0.31478453091160624
P 7.344395631668077 8.201886047120775 8.127702635049845 -0.5256275885425399 0.9311319518382223 -1.3697192137308023
P 1.6114137822840724 6.251052108939325 9.384927827799064 -0.061818833079009664 0.2318019192707879 0.2563487553722166
P 4.164529073925697 8.032617800095677 9.038205240807102 -0.3410853735896642 0.8229299035089828 -0.5246307718469093
