# total energy = -381163.0137662663 ev
CRYSTAL
PRIMVEC
9.35301022573356 0.00000000000000 0.00000000000000
0.00000000000000 9.35301022573356 0.00000000000000
0.00000000000000 0.00000000000000 13.68907588212849
PRIMCOORD
 96 1
Ni 0.2676261015298236 3.878160251368413 3.9556087884894575 -1.6059603997198664 1.1249653622850366 0.3910632481696878
Ni 4.637007389351027 8.936221458572637 4.161725753057849 0.4988472351249022 0.6725717906369836 0.48054175194749504
Ni 0.8270277771936946 6.570798387708475 6.378725903412161 0.38919071373732333 -0.4743230247312928 0.7592747885521827
Ni 7.449326645537584 6.806597130475745 6.337138678397667 0.1422028307547164 -1.2079163493569716 0.7134782990433584
Ni 3.356598984791362 2.9731536213694523 5.371333740220358 0.0439308970549953 0.1031706565529191 1.058763312536667
Ni 7.196711190244212 3.6708601309966005 11.397387554711933 -0.2588015877880833 0.87355903851976 0.1951600996780381
Ni 8.796169482284624 2.6180852912090513 7.385844958703095 0.35212980432928387 -0.4759253362214062 1.784899666663668
Ni 8.077680583762593 0.20321472547114453 6.919855538146671 1.3391143443607518 1.0989815366267655 1.678526186902735
Ni 8.273729032739022 1.9615694389595189 12.786034606312512 -0.30723371514754183 -0.3263375258565283 0.5413550265801257
Ni 5.187544281849025 1.3901846864945122 0.4763403970595598 0.013205442946680482 -1.5287470864626576 -2.828091607124639
Ni 6.809758447958405 1.852691046013829 8.199359506609964 -1.6351195377823258 0.2175685492802253 -0.5737077318792184
Ni 4.748139857779915 3.524373283619623 13.277089159181896 0.3485863099523997 1.1614230908914382 1.4568343594827555
Ni 1.0598737746080777 8.516392885069228 8.014803101393726 -0.7067762044328345 -1.8556024324958686 -0.2813802444195477
Ni 8.687337854390453 6.375685239762419 8.499013121322841 0.17530012752931745 0.2265329575623647 0.2401376928299929
Ni 3.441393376204954 5.370302103183857 7.0388548235420245 -1.9782473957233153 -0.9983195054283129 -0.1317160722907796
Ni 2.317255067799966 3.2041075047993917 0.27355403946032597 -0.16317120547626734 0.0568990271798891 0.21508152119231347
Ni 4.677833279326796 4.399468986667264 3.9551570380917878 -0.2849417365185609 0.6034613089925672 0.9831289137308037
Ni 3.685843653503172 0.6268247210403503 7.606307570475344 2.177149736052605 -2.4362791394937524 -0.3714706707497409
Ni 2.8235241625304224 7.955427386082574 6.093856592086386 1.8095809714604318 -0.48873277239871954 -0.08239562878909681
Ni 2.0784914207664142 2.6897199971252994 3.316685013320206 1.4999299051206492 -0.7372887711993947 -0.15857664412704947
Ni 0.6856009083910336 6.837845537900498 12.514156626298615 1.5928529158036309 0.7960896433876871 -0.5455718928749507
Ni 2.1660543032299096 7.952247362579307 3.8142286847383153 -1.479881728220522 -0.23607920648990313 2.921810631346355
Ni 8.438949959754366 8.951298511182245 11.541794292597363 1.0981639258214764 -0.3789420394261216 1.0530966011691927
Ni 6.2080980011402325 7.923860976307494 11.64580350837893 -0.18737557063661278 -1.0383891197556891 -0.06812317803048268
P 8.02442454309317 8.551429261666991 5.1747577814628 0.2154648726736612 0.05816118172176435 -2.7509672540368104
Ni 5.7164757205454135 2.7753000414044044 2.035784640418565 1.1482778117587322 1.66308362709542 0.2748691827739073
P 6.572444517521932 7.900366214424531 8.202288869437092 -0.6279916900337635 -1.0099002682873768 -0.9874447674973381
Ni 8.762985001727 8.300581525321023 2.3971353875999797 -0.44547910391640694 -0.11706309826429516 0.3819890537825615
P 9.014085269351167 4.2731752885360335 5.953967358177658 -1.6553399785942589 0.9913944961737055 -0.17677414097168265
P 0.1696102947508826 3.1916586480851303 11.504764789503875 -0.16424644081831713 -0.44568839171373564 0.43592282768653956
P 8.091653981156362 1.6992549119811822 1.3031932729605746 -0.24502895948402317 -0.5849956460882119 0.6729327735208281
Ni 3.1173302752014096 8.725788079749075 10.289448660153 -2.1082192316294788 -0.6436885319437301 -1.5568533577805703
Ni 0.8687693268781994 0.4529139121518139 9.845443490315487 -0.06861040207954637 0.2473303539236902 1.3382247426669467
Ni 8.80064957422011 3.6861710088638024 9.523230414750019 -0.01080866057972977 -0.3291431136261235 -1.8058976090715735
Ni 2.6512323597254617 4.475929845900234 9.359933401954153 0.9070646264763733 1.5818771335184176 -0.43714950100478905
Ni 4.895150473733901 3.506013324393406 8.672960406951562 0.7290411864786218 0.921420123867097 -0.4743258529447702
Ni 9.26956274579748 5.257579623003336 11.008973872216684 0.21610379180924072 1.487581153747309 0.5734408513710769
Ni 0.3545857148287284 8.702068845618824 0.35145900348419246 -0.23006462486470702 0.22930486388054702 -0.5098145327696832
Ni 2.6045140732583434 0.6995116406157673 4.738514674876349 0.9483657992180053 1.2929365602531089 -0.16847641973926467
Ni 3.425932850172893 2.210424984110792 12.029631409922263 -1.6470443142443698 1.3654092735015388 1.2500870691877504
Ni 5.255643549870463 1.9692014953673604 4.147255710816952 -0.46152998673168255 -0.4151051196102399 1.0129405977755974
Ni 1.1931167593949774 4.379855724060348 7.358480856457479 0.3696145913776086 0.04166395539768953 1.2716200581635198
Ni 7.5907722203608525 2.4948593804574437 3.375383570685368 0.41800121021111236 0.9111819910788564 -2.113306159234083
Ni 5.323312579417931 6.111874231135486 7.977788563116724 1.9491299095320689 0.47843447579650505 3.324655445532003
Ni 7.322284706582056 4.561023533643546 7.8410887057215675 1.3222741328749614 -0.30017603696981204 1.0879368487768295
Ni 4.293396496812692 5.819704895267652 0.7833885017185637 1.2032659950691535 1.4225065327351631 -0.6396192469703629
Ni 2.3082668248980838 7.685836217087937 1.805465826388249 -1.129656597113119 -0.45427716182401123 -4.003147458308164
Ni 2.3666015501624313 6.4030147358699105 10.752933344550089 -1.4736244344569007 0.270743847751624 -1.307648926762619
Ni 6.950577371091323 6.898845871101408 3.8048373270923426 -2.022217887766995 1.793311544876447 0.003584632027464794
Ni 4.101238900122613 7.124019594163643 3.0328146034948684 2.365030014239778 -2.4197364046437233 -0.13176492325084405
Ni 7.967380533250737 6.86773775883121 13.047605568971704 -1.6265508222767084 0.3090160038589452 -0.4485112058745115
Ni 9.03828150700691 6.821234591601078 4.421188547194579 2.2388541550409378 -0.9236464420944543 -1.139459956356786
Ni 8.107900160053937 8.721018044494175 9.263274716970283 0.8436529949889471 0.25037505428728496 0.002055854087764201
Ni 0.5889815060504392 2.2634752585535334 5.528497984160071 2.214538718224025 -1.3144821476343682 -0.07945557232416639
Ni 9.156989913781816 4.840463422488008 0.05087195834300334 0.7606876097393093 -0.26468710003458285 -1.6758290996865461
Ni 5.7204601029348 4.469859742213115 6.46499432924962 -1.772571741225934 -2.315694144119128 -1.8968748088820944
P 6.474499793621298 0.6961585864218811 11.754057120236332 0.012588892408604125 0.8631843801536554 -0.006701323279575557
Ni 5.620074243344895 9.292112853639765 9.538151272087555 -0.43757758968114313 0.1781766777461641 0.44182273811074224
P 1.449576301923181 6.434450203500738 8.626034483655703 1.3950983159255392 -1.2400661946166385 0.1654970253959666
Ni 1.81101403210042 2.592233570729549 10.143372409928357 -0.9343036646979844 -0.8284045534703088 0.3170769264902088
P 3.184447477140957 5.988339671043856 4.9368143934328845 -0.6670871133733285 0.14548381549883332 -0.8109920144208163
P 1.4402607036606683 9.061280559343775 12.059747167799234 -0.3546546276336666 -0.9065342078942001 -1.5811659663840059
P 0.3693466356900709 6.393680431586791 1.9323777585005555 0.7966241757349184 0.6900774036209147 0.04368072871740219
Ni 2.200379851044589 0.842737093299835 13.6836822878045 1.318154197169317 -0.18892980249761013 -0.4570318417510129
Ni 9.227651906626477 0.962892410768729 3.6910401860279225 0.25705529452093795 -0.7772984788231129 0.39628670135215627
Ni 7.079452500066382 4.667619792075126 4.562432096995287 0.9916451787319309 -0.08357679358139154 -0.3087586364325005
Ni 1.7232547364205464 0.5469462718423974 2.221791697532912 -0.22035331111421405 0.04526504248538656 0.729985295559446
Ni 5.053581115268739 6.619434041287857 5.881798595373067 -0.2666084854270118 1.1206443663121797 -2.8763761531626395
Ni 4.269190906146646 8.51398916142117 0.8714237112023973 0.8623251174771535 0.2493422421473964 0.005551011725216246
Ni 3.815794378663159 3.9641985931524006 1.8723922269176 -1.42681158786842 -0.7183369126872403 0.2985960940772019
Ni 6.455793773013844 0.49115650068169425 2.3756842584683806 0.3177119889710464 -0.8398788726584956 0.22049755000156218
Ni 7.209580932422141 6.134583340152936 10.358564600394455 -0.9516010183258513 -0.13400229722179502 -0.18250744391103407
Ni 7.121456869340422 9.128304231180286 0.06283913502662247 0.4664857880750611 1.0838652498106174 -0.17596012971081954
Ni 6.814556542244217 4.911396652631475 13.638316446627302 -1.4482347907392028 0.11750661355961699 0.3331450356966649
Ni 1.9502055314404902 5.752802812565091 0.5270318423037011 0.012841374739042401 -1.3308145662458046 -0.15259702950484688
Ni 4.506878956995268 5.948056255665702 10.28430169858286 0.9953557948142988 1.4762847548978832 -0.24115430701996532
Ni 4.222519384731046 0.2068212462442618 11.800490139889186 2.8771233157413096 -0.1593960547045513 2.9692996780662537
Ni 7.298079115916009 2.448636803536423 5.506252784453686 -0.5155149255885701 -0.5047006085818857 2.2668910065734957
Ni 4.014087550112483 1.75942282726506 10.013532050289953 0.5437224983710378 -0.3005699299741211 -2.0898373866881816
Ni 7.888048299854521 1.614086400155441 10.162208437379034 0.05540958711855619 -0.2476080330651091 1.1819942301745707
Ni 6.73193204922109 7.291447831610666 1.3663775340674047 -0.8755693840815695 -1.0042132452049284 0.6380673291022109
Ni 4.761795252823356 3.9690153934588204 11.122100402442326 0.07931107632650213 -1.1178853155098039 -0.6427253966995125
Ni 0.4102005846967519 3.299872977299256 1.7578141094928188 -0.09750368807512885 -1.9542446050508147 -1.0154497373506963
Ni 0.8766080848137532 8.8922155450936 5.541556657146135 -2.6571723822718365 0.8496943160870204 0.5245248423966644
Ni 8.267930166350713 4.921815906109828 2.138931508650131 -2.6438337561814014 0.5895231016449202 1.3966139812391174
Ni 1.9867290366765453 4.3199309870443665 11.864774315007734 0.5212376870049603 0.18457666773523695 0.761004883869412
Ni 6.03670408732443 8.752612513300166 6.157660957776353 -1.4047126990868517 1.1778367563627714 -0.05195890956579439
Ni 2.9026225706690445 2.6092560494823327 7.81575046550774 -0.8049596921838073 2.792789589389235 0.1459062477482326
P 5.947962725562665 5.4599039418935655 2.5868799076316957 -0.1063128017263266 -0.16235770843603653 -1.2803942048117238
Ni 1.9777407937746634 5.16883826124157 3.083300282512328 0.7513527054916286 1.1305143171277239 0.0015830282164037252
P 5.253960008015793 2.099142867517044 6.542214652919254 -0.6193203875120108 0.1576801004547091 -0.284682055099271
Ni 3.42610120435836 7.615894406036664 8.290843170992783 0.3067246367216072 -0.9498261858136158 0.6482157303901224
P 4.973388404924581 6.341948931596876 12.48217868407017 0.4266313750822846 -0.8106976231088491 -0.4672887435923307
P 3.594212211557555 1.5749066399931273 1.7880533271058 -0.8037844409287834 0.6688130949254998 0.6011385743966615
P 1.5826041674730948 1.0254453436800575 7.413346550200176 -1.4666253774312483 1.4437320177728425 -1.218748921196101
Ni 3.0100418940073532 7.405975442779807 12.690690954577347 0.6820828154512124 0.7645620050930511 0.997895787627333
