# total energy = -340856.7516262804 ev
CRYSTAL
PRIMVEC
9.44959287450506 0.00000000000000 0.00000000000000

0.00000000000000 9.44959287450506 0.00000000000000

0.00000000000000 0.00000000000000 13.83043435132329

PRIMCOORD
 96 1
Ni 3.5801295325709073 5.204353940268842 7.581470896930719 1.626421752898012 -2.09317339303995 0.5812402928108377
Ni 6.264900671037763 4.931109506712332 4.459540793389929 0.504477436827486 1.0692392723673263 -0.5669881537671977
Ni 6.13818162780935 7.582523581600045 8.957363778273292 -0.315855652488598 -3.0628073576081123 0.12504585935945559
Ni 6.025636974203802 1.4867044795768976 5.802212685293739 0.7147759348088593 0.29694904539208217 -0.60763780896776
Ni 2.6935687096261134 2.0995389397180055 13.756925499692354 1.4148148205178601 0.32930689289749737 0.5730523576834067
Ni 7.737619752853433 8.167699082790403 0.47202040387171834 -1.558136338258052 -0.7154937868114903 1.7926073197205707
Ni 8.795010319532997 6.915476805948019 9.576953752508658 -2.0487385597653422 0.6263811510135342 0.1330057376364806
Ni 7.189543354102654 5.610223412729957 7.059053923234559 -0.06532247535689395 0.24470602892696564 0.627664645711648
Ni 1.1952223313723025 6.3593304547052885 1.407136070949291 -1.5565615375717643 0.9950531759722153 -1.2102198006791673
Ni 3.199622767941638 7.989990035292004 13.098486358378642 -1.0234186144887858 0.5029990525097466 1.032978233152763
Ni 0.22286014820307323 8.549850076615924 2.3231399360187006 0.5523763173912938 -1.2036336628212174 -0.4583019667126882
Ni 3.643035473717182 2.805234551075043 2.621088440769247 -1.2100609065038 -0.4049132666789027 0.24501481841663608
Ni 4.419631381967791 1.8928574398304705 7.585522882444243 -0.4267033659708006 0.6401242116312396 -1.1267551071956081
Ni 7.52045865423806 7.671000121625967 12.151226074272197 0.23396061748500352 -0.8194825683903306 -1.1867677403038142
Ni 3.8321123816931193 5.648815550876477 -0.18428879916133306 -2.1491455375301953 -1.8018720328519482 1.2755075661433841
Ni 4.803199814755598 6.8054457441022596 11.684808334138744 0.5340821470677963 0.10966552024864339 -0.7203709123981336
Ni 1.4636002244916277 6.478281932420372 9.081616477707326 1.593904754106913 0.04971279384409503 -0.4528319447370524
Ni 7.743251710330251 3.6113037401481285 5.948898718704227 -3.4598787596450933 0.017595858704892275 0.27115033916142334
Ni 6.149417193983741 4.662438676207468 10.278378147792672 -0.1054864491702893 -0.2216226647449409 -0.5677749113345512
Ni 4.254660385943806 0.07876802809356885 11.48036733277093 0.38935269323648425 0.7902830640082389 1.7686225267701994
Ni 2.910928249696206 5.5409767946257205 2.4941388274696354 2.6960235508110793 -1.0276766184341914 -0.2702972471325087
Ni 0.876796558413257 8.919404762863259 8.62598639303618 -0.15328557093143924 0.8647787212239686 1.6212204112027306
Ni 2.6291508335867326 8.26960349458572 10.404912923955989 0.0002635380740318042 1.4265987005266656 -0.530680577585415
Ni 2.7770558645047876 0.48538212848953904 2.8194032709420593 1.3563091109724834 -0.7353383323412432 -0.03078073282628247
P 0.6529451478958914 8.2806878672708 4.649861267815445 -0.7012485897463858 0.48890400786926114 0.41567204785730344
P 6.178493591896777 8.704624961704527 10.79712962433236 -1.3719771565270436 -1.6312453995389002 -0.11083408663544783
P 9.08515062551996 0.2800897187850447 10.472612643672715 0.9699566380149037 -1.438810154991193 0.9916685757706987
P 8.486594500525618 4.970882843994091 3.9128232461243284 -1.2401438419321094 0.018088482070594655 0.19064858496092973
P 2.8074268566700464 2.3716588716977673 11.676731766931635 -1.3992169660796032 -0.34366316161916943 -1.9330720847382579
P 2.077322946382435 8.53582688048237 1.2380781259173805 1.0800852139428947 -0.1329075214957195 -0.3244133122506219
P 5.404505771336777 3.868786252444012 2.753362899770515 0.9762152173301057 0.339775396528989 0.20319402572610812
P 8.80992177741625 6.186015467989978 13.496637403210453 1.0276149119583207 2.4383177671903367 -0.45624097041860134
Ni 1.7128237924339216 7.669176350161159 6.924705278551812 -0.12570406176874482 -0.25372545881675657 -1.7266328126019748
Ni 4.048876597399052 7.263458071189355 6.929836407595289 1.3932635767096457 1.3951697925934232 -0.47627423492039267
Ni 5.93356013921367 5.158381669925349 13.461397035730085 3.220103335250525 0.7653125101058305 -1.1839102162503612
Ni 3.3325974417902757 0.07733168994511853 6.230098764676396 -0.8288912632987402 -1.2301126829483524 0.547987701405295
Ni 1.7422403756979075 5.654938887193555 13.005601583180006 -1.2125816160431246 -0.8904537573925697 -0.9105086191609157
Ni 4.933349060272745 1.1733465233876808 9.616646768249222 0.31168146650625034 -1.0571082934317473 0.8251873320845917
Ni 8.251271284006814 6.888243078685954 2.57694183180918 -0.3983615816033139 -0.5429820206605875 0.8469666327432123
Ni 2.04894581835746 4.327403353488349 10.156241212249677 -0.7018263166267268 -0.15332696569233595 0.30640710548118844
Ni 5.592382580991311 1.166807404974999 2.6904484539904665 0.28692225728369936 0.07131263150205784 1.4358107060432368
Ni 8.07848547450409 5.050873649432459 1.1437163793200438 0.15403504750295408 -2.236079163398962 0.8628100275333721
Ni 0.7414925598699289 0.5128076824911664 6.264536861704109 -0.34227965100808144 0.242275307998286 -0.16784367125127223
Ni 0.19171239948648156 3.05417463122488 5.407824468427144 3.3741144714940794 -0.9467020383623374 0.25579905351633364
Ni 1.6295823269753764 5.2162415283658845 6.694718247246363 -0.9054265766523182 -1.0941609753096704 -1.1396715581469596
Ni 0.6079131120640494 0.9039216153548796 3.4192568250665474 -0.30162202538771926 0.9144562909547541 3.736222470081998
Ni 5.26238389138485 3.3294034793285903 0.6049213708943167 -0.8008168736600273 -1.6627630105312075 0.33513455532286796
Ni 2.764298913844209 7.527319058815526 4.121096057486858 -3.4903892695291243 3.260964592241261 0.37538543242311484
Ni 4.221057632944534 3.7972244840347074 11.825270865545487 1.378156545864878 1.2041630529621261 0.7180916294456536
Ni 0.366345604436719 3.362826690059306 3.2698464739705444 -0.0946461640216757 0.07046648145167864 -2.1762989580165355
Ni 3.882535410378191 3.285132135739842 9.378417801857728 1.0407146825650722 0.6509349290934983 -0.3174741619286274
Ni 7.251674428616212 3.0476827607776076 12.688552615932995 0.1618576288711664 0.9196738305999517 0.28846929005584515
Ni 7.382173309077389 9.358716345241255 9.054813651889797 2.907674449055289 0.32001595451387466 -0.15863783638228807
Ni 1.084718789872447 5.616214454743888 3.7338989809555962 -1.2817134378437798 1.162941327308178 1.6410269044056962
Ni 9.299826481154792 3.2676976365037183 7.755914165060011 -1.4500602739837156 1.9852680500155226 -0.8185140338294743
Ni 8.716824386373274 7.941239584582429 7.194869144763619 -0.19681306190042877 -1.4509899848868366 1.0696992427228802
P 5.220663937928219 7.125597957717369 13.909544932598974 1.5084050324711957 2.1791791077778084 0.2171749133862324
P 2.721189870204536 4.668571462117627 4.842823848466663 0.0798216974143335 -0.5339420219455063 0.15075226298662422
P 4.2661038431659986 6.375130174338242 4.054724005598138 4.939414931600739 -2.667682280664225 0.20952845258456815
P 2.5821580071903942 3.949958257017619 1.0312057442495908 -0.1287220226594622 0.73165265595954 -0.745551011208187
P 4.054640849179017 1.5032790658425677 4.960797293297769 1.0421591283210827 0.5382614752564665 -2.4627920981826166
P 9.37313642428425 5.80531971149907 7.754503340812882 -1.8988627858464007 0.3151362578240702 -0.04759986126615028
P 3.484546898547388 9.173107437926378 8.458568897363289 0.010659536596375191 -0.5407245920849784 -0.23785995253940975
P 5.485120249918551 1.5516231840496193 13.029057363127922 0.5885175431985413 1.0548742618949059 -1.1001040802669826
Ni 7.045937888036868 1.0507380531498987 11.428475837320928 0.46248489444578417 0.13789828984209154 0.25566715592415973
Ni 9.162023065241298 5.394130118132839 11.605020694951637 -1.7358790137905913 -0.28327874699384115 -1.4380429378078654
Ni 2.6381657453868748 2.660892016748868 6.060731817950707 -0.8049234396292331 1.121918862149229 -0.13684722286975787
Ni 0.7144015214634012 7.327205026119918 11.639085533052615 0.6127687024364221 2.678079564738149 -0.40708919128429893
Ni 7.803370021517363 9.247995463100516 5.621545915160702 -0.5002793395857384 2.7724246525796383 0.0577462056715328
Ni 1.0533555904335876 1.672795316138951 1.4464558277631185 0.062087256249047915 0.6225952016085406 -0.8174742797110502
Ni 8.128237582080347 0.8246726029734416 1.6815040611232392 0.018055057729497937 -0.5608249623792794 -0.09347734052455514
Ni 0.3697616323358295 8.701582192732152 -0.16115903017474198 1.188877073337333 -0.36284307698172996 -0.12749329245868365
Ni 9.366039779879735 1.568339514211518 13.150185082129772 -1.0950071253600497 -0.8486671603740868 -0.9091338503005761
Ni 4.9206582567637405 0.2774003645939331 0.6981009733971065 -0.6295166113187223 -0.6361112338171044 -0.5029610001829596
Ni 5.059898010825683 3.728100710640536 6.105929221661482 -0.4651873809786118 -0.007529989828457999 0.06507770633593954
Ni 0.10021104471503899 2.2216749303016923 9.737539192383327 -0.319012967170657 -0.23087735057398948 0.951008121936859
Ni 6.137652450596762 5.9645548045223356 2.171682803061156 -1.8090958042938972 -0.36739830045258015 -0.24599466583140217
Ni 4.049604216066359 6.580025701133296 9.31031647443502 0.13551616276316017 -0.1107996338530866 -0.10266723455393932
Ni 1.7067099057099258 0.6016442520135103 12.1227771293398 0.2896288575815851 -1.473242882747766 -1.271802863598287
Ni 5.645649937194038 9.280596559233105 7.53786385973563 -0.6613286136229964 0.004715917418430588 -1.0322051024321641
Ni 7.864735678991286 7.1441853073094865 4.993105452044818 2.0191983842143806 -2.6496984424922947 -2.8096819942691997
Ni 7.319531956537408 2.8766545755881188 2.2852716367022547 -1.0177009952787184 1.488412648509669 1.0010613298395081
Ni 4.435979177999495 7.816051375433285 2.0313724101030317 -0.7263854940233296 -0.16881451980497378 0.31341516136790537
Ni 8.034440921149308 1.7391976067255324 4.248280965654208 -0.5670925405555459 0.05929272422304627 -0.021132153992924896
Ni 0.5624794685262262 3.39134556198051 11.801385129112342 0.8332544253634423 -1.5586611004132704 0.6630695075735032
Ni 2.328682122361241 1.3235856037969675 9.660447522102489 0.9259797182133214 -0.649488683565275 0.955266897213213
Ni 5.3362230117268945 8.397380892239307 4.298277817691286 0.4196130347829225 0.14428773830820313 0.7104785929850861
Ni 6.985668383360447 2.0706137352942795 9.1420419006696 0.4115590541301944 3.214226564754774 -0.6053292154392413
P 5.901138585349638 4.033048528986853 8.085174841446774 -0.7821637773352142 -0.3739628410439753 0.5543542670532711
P 8.183007423583096 3.8216327829652808 10.452281844156985 -0.39816489221147555 -0.5234812316234985 0.6557490626526901
P 6.844132378179598 8.680859235103524 2.588324811635649 -0.48207284388004074 -0.06792546019737979 0.05185220878460102
P 2.6475397417241298 6.239367870530441 10.888922026570725 0.4021210486457462 -0.8456029196264664 2.475901381871065
P 6.458475585320689 7.5535889275832355 6.348902828739401 -2.3523272219611293 0.9474638562290264 1.6490657155497728
P 1.7104991925357718 2.5408538358293655 8.077291990897844 1.9281823607461244 0.04344393011624775 -0.32203041384074216
P 8.136647719923246 1.471235495701811 7.232294258164523 -0.4079263424736136 -0.5120740182278213 -1.003330071269027
P 8.727483527369667 2.873177125333976 0.7413489260550838 -0.07950030951917277 0.8593796616955844 0.03987343915617004
