# total energy = -340895.106574025 ev
CRYSTAL
PRIMVEC
9.03147867702258 0.00000000000000 0.00000000000000
0.00000000000000 9.03147867702258 0.00000000000000
0.00000000000000 0.00000000000000 13.21848195968374
PRIMCOORD
 96 1
Ni 6.5141074232322955 1.846016148103039 11.306917094793999 -0.09328399356682644 0.3459406447994365 0.8572710999930139
Ni 4.721467313227912 0.46790554900618736 6.101148486440729 -0.25656369959650005 -0.35281397488050203 -0.8395952799798057
Ni 2.7437541452340786 1.6638512261995064 4.695640897230126 0.7097913371100744 -0.310343207310801 0.9482848094684249
Ni 3.3438236415709413 4.553021207207943 4.855439362559831 -0.7804365102314624 -0.11165735386769159 -0.13997137032103635
Ni 4.878018962026911 4.685883287828808 2.438743955544742 0.49200501539208813 -0.501780092500981 0.24522642020680996
Ni 7.239217739785044 6.229480377432106 2.6918384972133507 0.23907711277596244 -1.6154557408048116 -0.7507659797502231
Ni 5.224475509827677 4.414848617212793 11.56081814749513 0.012848573827894 0.4406886245062991 -0.4408403195928149
Ni 5.567518158744974 7.916063835085811 12.528199681848903 -0.974474066269283 -0.2987881554833499 -1.1527139931532149
Ni 1.864268766207503 6.527464979974751 0.4317561530512503 0.6066325076316973 -0.15984548353714406 0.27277630480062054
Ni 2.678700405399119 1.6936189794267766 0.22772150589291307 0.28655098998720974 -0.5873435774950981 1.0511577322752672
Ni 0.6395018347366158 9.146539564134052 4.642581864027792 0.1467030326179151 -0.5522678168378875 0.6155400945339722
Ni 8.500219866256883 2.176396664124513 1.3826534327962805 1.0033292999380783 1.1855253832562809 -0.4684997331812964
Ni 6.86568481935826 0.6817646385069471 4.7429893265594005 -0.4406174049487315 0.12131930243748784 -0.16475474791330336
Ni 0.8697521546172824 7.393249606074819 2.671785905438318 -0.06557624323891288 -0.5857410088946686 -0.39744086956125746
Ni 7.692164450905816 3.8121148347102616 3.9143891038535426 -0.2526635932111455 -0.4609628013743029 -0.781397331482835
Ni 7.754093299170195 3.847906584115502 12.66884418751708 -0.3845442161042474 -0.926890660063365 0.12984919428536992
Ni 8.09484195254146 8.925819260395805 6.70662151638071 -0.17633628210331567 -0.3349607487491651 0.8565900147655893
Ni 6.930268922309781 0.7281692783300776 0.25412683966432403 -1.2041622816311779 -0.22925138493479225 1.1077523408408598
Ni 1.8200687102929822 6.454779640783892 9.14235166754076 0.9525109317346306 0.9791686435314749 0.5331539788265721
Ni 0.09348302794442674 4.847375155382456 1.4633650469546988 -0.5860202306979843 -0.5687619578381689 0.6950553164514803
Ni 6.55090166675411 1.964843311091873 6.812210338143653 -0.6176756528197362 0.13490655420361927 1.2340099611202295
Ni 3.293030606331206 4.196964197732242 0.43405105174513664 0.15229286800086675 0.6889018952555749 -0.805289307609084
Ni 5.911355577772708 5.4361643350382325 4.659845535233474 -0.42059211086674014 1.3618896903840545 -0.4735429520321586
Ni 5.326856350417584 2.9143497431436387 9.378565472693262 0.021408547582763133 -1.103447799928235 -0.6673426810275603
P 0.25987537574719954 5.337811533871674 12.547260617281594 0.9323403703240265 1.4832840690338518 -0.8556834437909198
P 4.170646469302549 5.966501785662792 12.648526973421188 -1.1102185429931655 0.7962608788582287 -0.25232215071132674
P 2.518671637366957 8.55225021405491 1.4676748685081134 -1.2912450314832986 -0.458463689101533 -1.4389345963841993
P 6.249683794898551 7.726213124955213 5.8400972121892245 0.5392168971912004 0.4129070835176566 -0.3365730875416074
P 4.646786017282433 1.0770760662554049 12.550539043987147 0.8244687087510124 0.12657926528484653 -0.35759725520175834
P 4.026124749902434 6.20540245567728 8.011060538831478 -0.6424348620422871 -0.821990679524165 1.050364032729378
P 4.868499783658725 1.1497704369247919 3.7830108951547765 -0.7651315044432758 -0.07257787136772663 0.47564328620461316
P 0.16426001572238486 5.4318292253449405 3.7510349454274854 0.6152223061832373 1.2366378856613798 -0.7944261396423351
Ni 1.4038530223443302 1.161204288740849 2.5175390899595844 0.3328786694091558 -0.6422610554685841 -0.6205234066811764
Ni 1.8119765055321708 6.55786493669896 4.814025517771103 0.32846819904628594 0.11094850072612505 -0.35605767862878035
Ni 6.028123563657228 5.4367604126210605 9.221345494483211 -0.3556601860800455 0.46770294831161385 0.45057297349954656
Ni 8.708314163013416 2.4113867039365124 10.131543319391055 -0.006881814721497826 -0.07624632135824934 -0.06934368070114509
Ni 2.1705713604741526 5.1832106844346555 7.083837473751085 1.0205245807704424 0.32066335828988646 -0.3936019554311415
Ni 0.43427593556047617 8.850514792431914 9.169145354888862 0.2307490525262413 0.8755369881817373 -0.5099214906611927
Ni 1.4445849905042178 1.1154959759122034 11.293844029625166 -0.7336444895785882 -1.1470148858859084 1.5427806817375882
Ni 4.233559748726447 6.874210535088402 1.531638508884781 -0.12409763651357338 0.9249422780877424 -0.8720839966361302
Ni 5.606073540579688 7.818885126127852 8.079148855451743 -0.0039677263984963925 -0.4763598526556635 -0.6516491815517035
Ni 5.02030087475216 3.097878418304853 5.0547866723622965 0.48880296351502267 -1.9248913486996784 -0.6378654975040499
Ni 1.1112782754397716 7.579876078371031 6.908639434383813 -0.8303004849414409 -0.48098295324997165 0.3337240481285866
Ni 5.015830292880953 4.35508732379506 7.204349910633187 -0.6138516510879557 0.03234473487929268 0.023118845405650505
Ni 7.865261768367547 7.209486112471884 9.245904794043563 1.040710568800014 -0.5454299679804477 -0.724454595549204
Ni 4.5976367111347365 0.37723492347528365 10.338293732142668 -0.9118548487761651 -0.6315668089795315 0.49787047303392956
Ni 8.038991289326216 7.2815121537302225 4.700782517955941 0.5951296491984202 -0.3828580866510761 0.6109846139528059
Ni 6.96778568411381 5.938982870588916 6.932393126059494 0.5382321646804279 0.9151440610503981 0.4017379542747146
Ni 2.35271821942063 5.125878858740871 2.487863457813296 -0.28331757065157653 0.8413904242070154 0.9987859035417703
Ni 2.358660932291851 5.24030769168672 11.415837628985809 -0.1432793516483468 0.5575825441825816 0.1294972102625899
Ni 1.1313552522068293 3.2173106903550424 3.659814302854245 -0.8895767541042551 0.9542446265962857 1.3051888952579005
Ni 3.6317020196411005 2.673769218122999 2.6540200840264965 0.49549143127879175 -0.05212963081570377 -0.16640950990790696
Ni 0.9786058558679871 3.3174065668774446 8.149868041767125 0.2777735009048958 0.18458078150029503 -0.24219303269712483
Ni 3.2458862884166577 2.6045880926008835 7.49357036641256 1.568909517614156 0.3285502172371309 -0.9403786672474709
Ni 4.2140878810207445 6.733057557179115 5.858748118496759 -0.15961357003199608 1.0491718121934899 0.2350255684144081
Ni 0.9331142985240061 7.388643552025696 11.54755993701648 -0.4477848692314482 -0.7054358883548562 -0.5875343533496655
P 0.07725797676942939 5.839221158772038 7.967215420023096 -0.2211218138491224 -0.2393807600593103 -0.6309338033812231
P 8.520007835711054 1.7184013565067615 7.932727816117254 -0.7397809414936292 -1.4830788950015814 1.1566670642636918
P 1.7700614136851556 3.4167167047679374 10.180940991198261 0.03096739491579183 -0.33818928298879175 -0.09459448484813386
P 3.9527259239078867 6.296241066708799 3.615836421311505 -0.43683839752227355 -0.03711104591968448 0.8315672674690066
P 7.008445400445477 3.856974188557304 10.510887093102555 0.37692346633419604 0.639403274304815 -1.1490884805854855
P 6.1286168252348485 7.623940662107636 10.293178787453293 0.23896655534002714 0.05536793524734336 1.1896427478587641
P 2.6821233357611134 8.663617375779872 5.770567471595941 -0.9540487085353956 -0.5648829344987367 -0.46988401512333267
P 6.832150939584944 3.8798328607108905 1.7229893475988287 0.5351108454426268 0.608195738353759 -0.5022104951701802
Ni 5.243125512987359 2.9514600884139224 0.2893523153658783 0.9009991370085837 -0.6494184924489719 0.591070391527382
Ni 1.4662695704492046 0.9946096358190559 6.954401936083626 -0.5021197352285869 0.773125578392346 0.32878958694144667
Ni 6.8341017389469245 0.4746050997780288 9.366866998556343 1.06407212634409 0.9390951725493568 -0.7761412252902181
Ni 2.4875130364464217 1.444494675718941 9.347357198640825 0.6977704013897983 -0.05019153325272646 -1.0421670987408826
Ni 6.388524714304749 1.9060935432692414 2.4183472644378043 -0.2210354247829032 -0.07184510696676014 0.952167946572915
Ni 4.1821435414683 6.653824396055679 10.39911170854814 -0.628194550073189 0.8075732185472545 0.22499415232033512
Ni 8.333453615243062 7.14757532716456 0.3595133563082479 -0.5212130044146119 -1.3478540382265949 0.6288409254079363
Ni 7.656643645856406 3.885694290275362 8.165413022608986 -0.35185932427671657 -0.14719308488045615 -0.054266731763364606
Ni 3.064859332807614 8.498901270391839 12.497069981659656 0.4216660606572093 -0.6561414129951022 -0.5174365680913153
Ni -0.012433636489072565 5.1044200657590775 10.031717484076632 0.13070999962376845 -1.1338942893435504 0.6500283581188289
Ni 8.697322853645217 2.45896453282039 5.881762132081022 0.5872206787639886 0.10331669521248013 -1.286044975339598
Ni 3.6043095452666134 2.7719594526760583 11.384047727716187 -0.29602910468097404 -0.6970908588242705 -0.4682102269653356
Ni 1.3047144825458632 3.2646356378401444 12.25098115788498 -1.694494023085901 0.6194332589407913 1.420261188344412
Ni 3.240331929122127 8.432212832943366 7.92658189497916 -0.16848413304874854 -0.23982761778874181 0.7447879077899173
Ni 5.596147945677756 7.950284107227233 3.477385661777704 -0.5667778375286044 -0.16588937573837884 0.45921059456988655
Ni 2.949717013058078 8.479465528600247 3.5120981494988857 1.404447104130291 -0.4437132702652358 1.2634496065375853
Ni 3.475096181970934 4.374089554617322 9.322743710209307 0.3231812396157337 0.7825119047032523 -0.5097024326718513
Ni 7.318568310129339 6.1011250045965575 11.509874286563983 -0.16728317076211188 -0.3588712368181755 0.001956352395422437
Ni 0.6577400024754356 -0.09804302145305806 0.298937423527317 0.5706239507475721 1.3670138989844973 0.37333523476230546
Ni 4.508514081023479 0.4277118569665502 1.620255376198488 0.43485967652934787 -0.16118065740879983 -0.6310615872083389
Ni 6.097133091087318 5.514810450057367 0.4429434455035015 0.45452681594097205 0.6712078204099214 -0.03192435951242244
Ni 7.9551791685892415 8.622072574552492 11.686829851652744 -0.4092640874484306 0.19999531628315234 -1.7926114334856287
Ni 0.03431329637025742 4.953061517113499 5.912627209949408 -0.33372327679763814 -0.2812588883503349 -0.09531259396108101
Ni 7.8936386739015525 8.586976248993885 2.587782317356556 0.07642244192479741 1.3434978181404282 -0.5312426207364722
P 8.459063418606192 1.5215873764313135 3.5159573002737674 0.1006113804661751 0.6985273341604809 0.3015546624848936
P 1.7956927497467434 3.207818606422439 1.5947044202957965 -1.0865283984650773 -0.5697914275439477 -0.7284243788302294
P 4.946622072923255 0.9641645217022087 8.214770955910671 -0.3108569137224259 1.4739262819680359 0.19855884094694193
P 8.609500756441946 1.6245372001684664 12.38645785153961 0.02140314826612443 -0.06717598362586497 -0.28157179160506346
P 6.399046386789509 7.732101648955267 1.2253602996101567 0.12607378640333772 -0.04327398019728676 1.5686284960386276
P 1.8027643974339258 3.267968253416863 5.968514902226613 0.06559604073325477 0.06581407028133182 -0.28391843746036904
P 6.785521415946473 4.017228743552658 5.949929022564477 1.0365245557431246 -1.1418400265531885 0.5614376562626138
P 2.2953863937268455 8.39527408576511 10.226689945680283 1.1247149368371274 -0.017203251252163917 -0.2824534228790684
