# total energy = -340896.22127639205 ev
CRYSTAL
PRIMVEC
9.02946925535116 0.00000000000000 0.00000000000000
0.00000000000000 9.02946925535116 0.00000000000000
0.00000000000000 0.00000000000000 13.21554096795279
PRIMCOORD
 96 1
Ni 6.12844524593867 1.9373268026503236 11.30095232155469 0.8945626373546207 0.9339164565618948 0.5356816303444324
Ni 4.6925519586949545 0.22515703912045315 5.892849237427735 -1.114190897377352 0.32368697560755866 0.3428031276117193
Ni 2.6133180174400126 1.4517400057631282 4.807284909616282 0.2619733006478456 -0.18402285211429598 0.37984372530478455
Ni 3.2426810530648855 4.69099888998536 4.844447496174887 -0.0701746612428727 -0.8660632443633471 -0.032611872497750286
Ni 5.168314693047038 4.499763760912618 2.5923344338689214 0.1533277370232843 0.22858624054696763 0.2741559587569666
Ni 7.375126005219812 6.143677960549638 2.6013341058622546 -0.14813025198274488 -0.29391694343397773 -1.1785738916391122
Ni 5.0664622799991825 4.363256244914615 11.64533627843813 0.5888607854705729 0.22302237330594493 -0.5901270537775063
Ni 5.665838448271934 7.854455379922419 12.514826310239489 -0.7536571852550892 -0.38963962834928373 -0.2211881483106836
Ni 1.9292544571481267 6.417090289192285 0.43941009118447094 -0.2952755143444012 0.32615189220828344 -0.7426785747563984
Ni 2.7403175023263677 1.5457006626936232 0.5549665297006534 0.5039112799113709 -0.3298478530026319 -0.37285161025766755
Ni 0.5341590207797778 -0.05444769952824182 4.873627128976788 0.2625628546027285 0.542467285807698 -0.4355944978128434
Ni 8.637472893635533 2.2670017541388208 1.4237766424681013 0.3174705623842016 0.454574638459772 -0.17804503726430626
Ni 6.775099715161649 0.7157226853475942 4.716256121348609 0.4740687426286417 0.5704041214272821 -0.2942807545312996
Ni 0.8684868577685904 7.316913017017726 2.503988300912997 -0.09617751306453759 -0.41735894864142314 -0.13913704734519908
Ni 7.502152578513893 3.8964778324581535 3.744319537423284 0.962639021307568 -0.5808613122048641 0.14994699347650953
Ni 7.524554691702876 3.886446092130479 12.498360170130084 0.7985954405286763 -0.7906713005855932 -0.3006871722782757
Ni 8.001274549794593 8.961161307016695 6.772224732155049 -0.29825079492264117 -1.0477793027213373 0.14511023420949848
Ni 6.809140814203353 0.7364128111683262 0.4287995618783952 0.6241867144653767 -0.1578022278548702 -0.6284706865527112
Ni 1.851691316360797 6.317784186470627 9.381963467987601 -0.009010431028726418 0.4651166756416764 -0.480129861221057
Ni 0.20736537292634905 4.806467742649897 1.2861259956640823 -0.8258409065081905 0.142356068503129 -0.33461750647713334
Ni 6.389523319596975 1.7733787296263954 6.888521587149063 -0.5118508464734217 1.2607509766594998 0.379024828947915
Ni 3.536698630517391 4.346018988131958 0.665553148346132 -0.033015278583756046 -0.897124998765158 -0.5470754740036707
Ni 6.069997491536297 5.773162719680339 4.597951112395213 -0.5728435841067101 -0.33626635493446605 1.45894266407501
Ni 5.264966131811598 2.9089338109483225 9.083371561417183 0.7133453730099198 0.6938970344773211 0.23446995302125423
P 0.21916237449080142 5.656619360176024 12.226661634749536 0.49941467759259794 -0.27027873518974743 1.0622350731353514
P 3.9863661987605825 6.095451565329019 12.72655291680964 0.6578159724840477 0.609807305815253 -0.4873891138866316
P 2.380980744378455 8.43272967857701 1.4117629336418451 1.6358872691862858 -0.423365045626187 0.562152165831135
P 6.290451983075604 7.784747877375483 5.808428214751235 0.4297398388042792 -0.5164487502567493 0.10583226254548225
P 4.669878961428717 0.8345694624555001 12.568587770105351 0.3207345778474541 0.9892905624568253 0.7627038688383897
P 3.979702450460111 6.1624682860418885 8.137746850862554 -0.6285922997322401 -0.02983430975261313 0.1357943561252113
P 4.581209573473934 1.3012819597864957 3.853546318000943 1.4143281106894288 -0.5688848565692782 0.2066223346813667
P 0.17856046309798349 5.403794221404753 3.4797705357884183 0.8142678569586105 0.3722062633641848 0.8562079488358223
Ni 1.5011312025159447 0.8856383345934487 2.6886617146877003 -0.23400329779748086 1.1159798709569748 0.13946871965300495
Ni 1.5739719308897966 6.679161604467192 4.702856388993733 1.1827802164109757 -0.38514945378841414 0.3368448531457554
Ni 6.010141139932198 5.614352414655013 9.058883640833336 -0.7776779736497187 0.178276436548822 0.8244563674558381
Ni 8.562699858843928 2.4005927515717125 10.302069092570967 -0.01286348622622946 -0.7839285825451209 -0.19465770612032282
Ni 2.1918585111083018 5.201245167371996 7.008003135944669 0.2789700923161583 0.2265180451640292 0.25699693047917677
Ni 0.5915665803254919 -0.10896492596964574 9.20889292218865 0.7791527584230323 0.915306040549559 0.047350978480137806
Ni 1.6144420120316838 1.109721769821048 11.173475177745441 -0.4786797590380918 -0.004137676317457389 0.7276103675693663
Ni 4.241132673418848 6.920022696493039 1.5083818663171351 -0.40370587663436275 0.7812944873563834 0.695080513262461
Ni 5.420625152071525 7.846202445035385 8.061717816899412 0.8591752589942622 0.5216086971911339 0.06421484411501198
Ni 5.208360389134559 3.295656949106709 4.794611146588448 0.5663674894640632 -1.1610973321209035 -0.17067882670722218
Ni 0.6865141582441189 7.286583029834416 6.924071510501076 0.11834685007272522 0.2273377128518472 0.4384065133403417
Ni 4.828102350953324 4.613291277690161 6.835183609390642 1.2528250369442038 0.8549823039588372 0.34727376178856323
Ni 7.989283414641441 7.441655134593624 9.02839473499137 0.007851891944250995 -1.2714596213262555 -0.2695727102616583
Ni 4.668587747327135 0.2762529996661272 10.354046329314643 -0.8796435541509431 -1.2384008910990736 -0.1568753451652266
Ni 8.15639180190001 7.1251180608519915 4.753761827738404 -0.391705509739377 -0.052497041457451515 -0.06560272560147412
Ni 7.24370208040496 6.173610651086309 7.112775679345332 0.017501499218873083 -0.47952488064720633 -1.5309379234663891
Ni 2.4178390378236103 5.252929849312237 2.519331175048716 -0.7863472192889425 -0.0458967625321145 1.1983114792773555
Ni 2.5117545474078957 5.0108858968157115 11.618152158338672 -1.191948256063489 0.5072100052673008 -0.4958110194017396
Ni 1.250581489993614 3.331810943951001 3.8477177956053406 -1.0341154320809998 -0.0316065711616875 -0.7163278526770115
Ni 3.4891584749591504 2.7698980435626064 2.70062214964543 0.024312608603435547 0.1761179954449225 0.12291441483874962
Ni 1.0397975600123075 3.2147619341691436 8.116707284582162 -0.3656728331210412 0.43757758968114313 0.0015766004585005106
Ni 3.7612795895002153 2.616126182374222 6.796924845266078 -0.27703276608412936 -1.044633300893188 0.663582956874812
Ni 4.002519919234218 6.854495838205071 5.878312694895311 0.2919726752234133 0.07736115168898289 0.39547628963571896
Ni 0.6893150996029349 7.665495677098618 11.50427339520762 0.5769902592852321 -0.4941488012079683 -0.5499936760917302
P 0.11347243701516786 5.513213329677262 8.059893864112562 0.7612357689332954 0.14902422455192402 0.3779979303452974
P 8.561318350049929 1.5270186908322745 8.060779655045184 0.5015908593083103 1.0174220305857187 0.0014141067387072421
P 1.8760708833137414 3.3756038697738817 10.429215757805965 -0.3938019872570896 -1.6123184807274102 -1.188459011963308
P 4.046041960979845 6.275598506172791 3.6851936698808494 0.5231351611379893 -0.5438574812870053 -0.5958852964175221
P 6.86830189667583 3.9885423008478638 10.256409775455799 -0.6959037804947048 -0.33940695744597676 1.0734440544772934
P 6.330714386424929 7.710462433922937 10.271039321521414 -1.816065550743511 -0.41904224988111705 -0.6671673317919606
P 2.452765024851013 8.405397475181987 5.938112160843186 -0.45767616020323115 0.036586797985098285 -1.29704209778105
P 7.014651534147429 3.9428802748919236 1.3954818976518994 -0.23077270667532512 -0.47494574591695626 1.3642713032423537
Ni 5.275675082332411 2.6868540149454856 0.6470463481880749 -0.5735938320091735 0.24920957322427403 -1.1974100505090088
Ni 1.5037136307191084 0.9166626879614562 7.04688312755307 -0.8112961759247964 1.4780400470260933 0.002252800589918701
Ni 6.922307152211221 0.8019152898893419 9.147162955716873 -1.1516562413126616 -0.5118922412343184 0.07955147447208236
Ni 2.765482633103351 1.7789228237408798 9.11010691689532 0.3725194237292294 -0.26208180120125185 0.19672461595168056
Ni 6.412205346332455 1.9751241608966288 2.5514977562758157 0.5597276155500426 0.17446194789873826 1.1868649280033108
Ni 4.122982068389488 6.513615315387461 10.589665814445608 0.5562052042190808 1.388915327043279 -0.6878976223607766
Ni 8.13764662375397 7.206563873413309 0.15443372128381067 0.10654934321716489 0.432670639297829 1.0349165878260564
Ni 7.585675169000831 3.8267161530957656 8.146191210497514 0.5189244654907514 -0.6425834718050094 -0.09591243232860902
Ni 2.9764110345925268 8.379139778626744 12.443092594794685 0.8713635735303381 -0.34071487762412284 -0.342288649869146
Ni -0.002037048260957107 4.712100759603519 10.237709744655968 0.5387682396895561 0.7601260808088844 -0.11863301385457634
Ni 8.608641798346365 2.3266413984811156 5.857246943154118 0.3437966018732402 0.19484616798204507 -0.06949203335355128
Ni 3.5847083184762076 2.5503194105397564 11.686225326952838 0.005598320023383907 0.25197530889486924 -0.368683594922907
Ni 1.079238281660626 3.2541936263482203 12.53116062009796 -0.5112929170874226 0.11758271821319104 0.09762735813718669
Ni 3.0875547714902267 8.483944828116677 8.065762116172827 0.40818088168658095 -0.8343823683202984 0.21868646493475244
Ni 5.721162006316634 7.935088540251971 3.509109087248976 -0.11221116948863255 -0.08732571910086251 0.5740466032758759
Ni 3.3157836360467505 8.332999190800987 3.7168175800065146 -0.7119418077941739 0.1663891981929328 -0.2693878479443619
Ni 3.401563593844146 4.303472129064451 9.133934783277589 -0.10865173427214835 0.14796441582884196 0.18498855846167495
Ni 7.185462003795149 6.0786206346622444 11.43836820215842 -0.13465638586602618 -0.31445851503075517 -0.7287107997223966
Ni 0.6989098136193047 0.15124902748221683 0.3838689229310434 -1.3001575034815802 -0.5008781495120019 -0.6848161552219755
Ni 4.742051509078673 0.40005334360010153 1.7710545442435481 -1.014642668068369 -0.1448112149118409 -0.5302897699048996
Ni 5.956117825458321 5.570035779616106 0.48107115931935573 0.5189668886929127 0.5717866035971055 -0.4397884812895329
Ni 7.697387762460766 8.936664356963608 11.292785166625453 0.9683463561049902 0.435417863025663 0.7596481127312014
Ni 0.15014833518163762 4.752173544098766 5.69379729683234 -0.5911729785435174 0.2941997647817191 0.30090828715014634
Ni 8.183137089794315 8.81659950445498 2.4780990067028186 -1.0597436741720652 0.41385942012859694 0.08760519801449428
P 8.586510569234637 1.5945862091688972 3.6781100512606333 -0.5305818472240217 0.3169918229755702 0.1089972905370252
P 1.702497396078021 3.2088837496927116 1.4895500052663722 0.6165502809660414 0.0116147014207929 0.5183405679628234
P 4.68074141292664 1.0798613150383125 8.277342445341263 0.6757661292045652 -0.7358957475066101 -1.6560290342414834
P 8.620073106406522 1.6033086764565059 12.398754289029595 -0.7546411464349133 0.021968276740975068 -0.04278881303075211
P 6.413794532919018 7.789903704312568 1.4931843666362092 0.18758768664741887 0.029038810434511283 -1.0060179025138352
P 1.8848475274168013 3.20340286186292 5.9438476797055975 -0.7046470739049735 -0.07505770036678686 0.7187971401531105
P 6.962208376790874 4.0604078465435975 6.04977057748767 -0.9459265936488934 -0.12086781672236603 -0.9537306630743445
P 2.4924495421688606 8.30077301507689 10.152984428866016 -0.5173126409189414 0.23727271257737198 1.316170591080385
