# total energy = -381171.07641454216 ev
CRYSTAL
PRIMVEC
9.25194864066056 0.00000000000000 0.00000000000000

0.00000000000000 9.25194864066056 0.00000000000000

0.00000000000000 0.00000000000000 13.54116203690427

PRIMCOORD
 96 1
Ni 2.7432952703878657 2.2404888734214934 11.271731284750745 0.3328475590609042 0.04043676785880778 -1.4371577069894346
Ni 0.1937940903245265 0.04966723550646919 7.151399119127123 0.517366119864696 -1.0143187090700467 0.5964013168219922
Ni 7.890006228508818 3.108441924586368 9.869245979779299 0.2165251956173755 -0.39792166585241795 1.5101559537240314
Ni 1.0945147677385414 3.9258700846123658 10.215994209052191 -0.5867568517536927 -0.9821051004519794 -1.3584505827955184
Ni 9.101215823556394 8.725336909017093 12.82705507931343 -3.0667010362355636 -1.9690613583486731 -1.4292309959431901
Ni 5.467300228008004 5.784188718467195 2.2302839741491662 0.9687425631021446 -0.9141927528807223 3.2750107859216824
Ni 3.089567949504275 6.714583170528658 6.498349404143295 0.6204740415004798 0.5001009050263451 -0.2963196393381993
Ni 0.2908784874453252 8.663478380880393 9.98854338022098 0.7181733905261825 -0.05967479015281335 0.14488886222731176
Ni 5.426119804924478 3.0760971123868606 9.742432296319635 0.644556022150348 -0.3208369077532732 0.8475934676939337
Ni 4.4467547890838395 0.980882335406061 12.255103319516898 0.6203421439083059 -0.7762510113952051 -0.4628376497995126
Ni 3.173501626928169 0.5047816879859929 0.6869173979178994 0.7952015843557789 -0.5796025000970986 0.1451642273758855
Ni 2.243468000860922 8.671925409924487 2.7051994469574616 -0.19544574923925695 1.8605250666084667 0.7147679643890593
Ni 7.168715066070085 5.218765133581411 11.447237973532493 -0.7417133826296516 0.1701913455478424 -0.6003754709783918
Ni 6.488696846200576 2.9522042690906343 12.14027461023436 0.2035069289808366 -0.8915745012605742 0.14572215676188455
Ni 2.848758232133342 5.316622993602632 0.6750906320613117 0.589896425823939 0.15577105635745433 0.09477420495910775
Ni 7.201069130218162 0.6097145130784283 10.497068406598252 -0.05270478659288342 0.6526665670726244 -0.3549289643409758
Ni 3.2248036817468955 4.4193597693690965 2.794015377641561 -0.6233284802301394 0.19102370891216136 0.6851694247963361
Ni 5.060047955869011 7.891939885759874 10.522959059475571 -0.7764456439045144 1.4101032739748036 0.17949128279252957
Ni 2.9285562885466008 0.06031530311528304 10.206190844347786 0.6761263407574614 0.1489712598268015 -1.4959958601735655
Ni 0.8298933103338918 5.93053604094197 6.003244329166303 1.751742720295725 0.3241996535779191 0.4417569178698134
Ni 4.259134524039843 6.023120290278489 11.386708950405252 1.4623406340129654 -2.4970931854573317 0.5952841724984135
Ni 4.0130234401384985 2.1414652678804957 2.8606247813687795 -0.34719174359771815 0.4940426146474073 -0.2881116496061103
Ni 9.037941747288535 4.126137763351079 12.353737418023114 0.973942362135529 0.11379856858041047 -0.10876254881839978
Ni 2.460481706510707 4.169446134605625 7.076502745066066 0.3738026613170272 1.073811722229357 0.07258378490499758
P 3.030290715018507 0.8147219650693746 4.39789894946693 1.2866813233720162 -1.0018090066388103 0.6124342019151389
Ni 1.4832261349439504 6.061802687248209 8.639518609669562 -1.2360295626534197 -2.0038789802484906 0.2631171844443017
P 1.8801162246849326 7.906132374865723 0.08149671417064704 0.49424316069398755 1.9819202165892125 2.771024429798002
Ni 0.3461977383329955 6.144940697095112 10.819523794511804 -2.0998472055157 -0.4191312100504975 -0.6395374858898341
P 5.781681440404819 3.503860954504775 1.620592590942162 0.5155678903136928 1.5388782613593883 0.34485615348600607
P 6.780938145670212 7.942825602892968 3.130121090474779 0.08295252973383133 -0.5237853931274786 -0.2747416560571075
P 6.584278726873663 1.7712207900201145 5.948104566080884 -1.6216700971456395 2.0038563545406713 0.21569292952406724
Ni 6.338630240400802 2.479013359495722 3.5261997843262027 0.6341258279559595 0.628776133608272 -0.8328944709208623
Ni 5.3395123143639545 8.394505732063436 0.7383536059908863 1.2879812731303624 0.33507721972237126 -0.3877238993838097
Ni 3.773638522847292 7.734416209412959 12.853649805476897 0.08352485729753358 0.046014776167217525 -1.6014236881917774
Ni 6.345569201828042 7.497594081875547 12.334698758256481 0.06271074876565973 -0.7154004557667356 1.244031864132606
Ni 0.39495180651563994 1.6393990267996958 9.040323198850365 0.9271230877891451 0.1278632742035927 0.20618447581299976
Ni 4.60201173803119 2.4703442836859577 5.177355262173357 -1.2210641995928389 -0.9537856846819961 0.5014646181430912
Ni 8.283593372610433 1.920436216551481 6.986833784723844 0.9133450601684464 -0.07849012308710354 0.6060820344448659
Ni 8.293733508242774 7.275177238261085 7.794929504227633 0.6699662346933365 0.4017592944309532 2.421667560228165
Ni 8.150143266441756 2.8252397788692836 0.4616046944011354 -0.3192986167318759 -0.715575033671387 1.0830620371830315
Ni 6.231501927912787 1.240362484990554 8.100513038729565 -1.1263923245395504 2.5621608644909424 1.6291427513736005
Ni 4.978038683747605 0.10222848052552588 2.686377282787359 -0.0974124139129032 0.9063897118965357 0.03938210134204831
Ni 3.6554171240242637 7.099593758306207 8.852887047582904 0.7395868232049521 0.23821579321693165 -1.272410929495931
Ni 4.51987293862981 9.11356717489688 5.9630677425025835 -0.5343567408854216 0.13304610395611283 -1.0356033294804357
Ni 2.4002977810651127 6.976061741004196 10.704491542360737 -0.5240162781913621 1.1484590745316026 0.9114624984337529
Ni 4.538210300694862 7.512165900872751 3.745634724916666 -0.055082285686124485 -1.5136289998742964 2.494660664756439
Ni 9.24990388901929 3.757641903770362 7.771949514370329 1.8420920567142596 1.7776188167315385 0.24586456801144108
Ni 3.382059051585291 4.595415098701028 9.618016717929223 0.20889596120689183 -0.48804808762686913 -0.4183475378069376
Ni 3.1091080648833826 0.291258742531538 7.7242853257291895 -0.4228356554852782 -0.08025312852479728 0.16292746489657747
Ni 5.96306589211287 5.570357683125371 9.150629555672054 -0.2617323882816331 0.26532293384636885 -0.3029510286117879
Ni 0.7610652893396709 0.4208591129003828 0.9992724335779605 0.6608560448619522 1.065637413948681 1.6282017276165701
Ni 8.012039430142542 5.570551974045334 6.490333515902548 -2.3209582207315447 -1.5856111466395533 -0.7429693665239399
Ni 5.70002374232906 6.944438580793123 6.744148697377843 -0.7446927769729498 -1.231347326686402 -0.0747990473887615
Ni 1.482967080384 8.542851475429254 5.321067629695494 0.6201187150435901 0.9880021826627049 -0.09881212247390724
Ni 8.815793210182592 1.0694697429604902 4.8201116224430525 -0.6089891807893318 0.0030076764780722393 0.3938881192129926
Ni 6.9419405546793165 3.617188072534457 7.8231488725599325 -2.0150244553423486 0.8029022954341464 -0.6687994680787449
P 9.120811450626919 2.0823545684689813 2.4893126286434604 -0.7558436513834466 0.1527502672532595 -0.4325721660467518
Ni 8.925364037092997 8.6360371014228 3.2683220722339734 0.32515636106423357 -0.6031265513609677 -1.0953794210978038
P 1.462797832502156 2.533266785908169 12.99507416611776 -0.6031188380514839 0.08573883422971686 0.36696661223180027
Ni 5.42339048009643 1.591853263100248 0.8154121604326707 0.8580563148984707 -0.2980330224848803 0.17980212916472904
P 1.388689724459234 4.611855811309301 4.358236771143684 0.3225883432267412 0.0055240151420227444 -0.46789500971776193
P 1.6964742975258864 7.84591144162585 7.73551071492875 -0.1955992440979857 1.4489446723220336 -0.49426115841611645
P 2.6214563596741027 2.1718764228289458 8.7396829804692 -1.3630888528984784 0.41578826172019356 1.0402210307581052
Ni 6.168884739993374 4.164551853812279 5.430520956859062 0.7602116985441553 -0.669613222229292 0.8711303744736094
Ni 1.4266134616462423 2.201565925788963 6.430549274635163 0.009285024846351752 -0.9237701121565123 0.4474215723547585
Ni 6.665529339212358 6.062866661333719 4.331695706281919 -0.7880220358882042 0.6991425991469765 0.02516184397760828
Ni 1.4220800068471124 2.136746774109972 4.010554095065258 0.677071221169234 1.5472376890676771 -0.2987249063455823
Ni 2.3891676869358203 4.395878323899317 12.084999768699825 0.3101760856053174 0.60257916349793 -0.010601686775246259
Ni 1.792305980810354 0.09322263378782548 12.108290624029072 1.3927431854298016 1.3951631077252038 -0.5286103253199477
Ni 7.936108688231399 4.199440951868441 2.761286609576413 -0.2323783605995482 -0.5561219004766552 -0.5928873901314627
Ni 6.419621798179546 0.3995093163810511 4.5112112643789 0.2193420962408803 -2.31470709761551 -1.0225169286101228
Ni 0.5589342681590299 6.888103465952504 1.577342506963604 0.39696418703515507 0.2702447966280185 0.96861735037819
Ni 6.848079536440184 8.854373835718047 6.827711371664093 0.9522245108424634 -0.18310445406508466 -0.7428999467385851
Ni 6.8858182346558 0.44791551129747653 12.835504883942093 0.063651001191742 0.7502664144059853 -0.4109833841323825
Ni 0.9080426695120384 4.403936771103485 1.4879705341704683 -1.2286823782597291 -0.04025756196846615 0.2940809798156677
Ni 2.1087226218924933 2.3689706832082673 1.577965163102342 -1.3535518599423204 0.42215894113322777 -0.11705795605797259
Ni 8.847804952233593 6.093879192939196 3.9375127366924176 1.8252775562600823 -0.37616010580561027 -0.8114149608908477
Ni 3.6326758344400565 7.155864109506838 1.7142704205996142 -0.8777874747788107 -0.0020357994831061714 -0.6250048394912978
Ni 2.1943123981103545 6.832554766740307 3.9798829603620014 -0.049061790523657445 -2.6318426452577963 -0.031817658731229076
Ni 8.642023112147367 3.553007305306773 5.093156053825514 0.6426027550787191 0.4749159211202854 -0.37712658348393757
Ni 8.363520956303669 7.825871721023981 5.391969012364174 -0.34577789396932707 -0.015813055772856636 0.42774312008922466
Ni 7.464129783899112 7.429546000145748 10.338094949910474 0.7500769241029985 -0.3103288091330978 -0.9725709357092992
Ni 7.25634027097327 5.162550294072198 0.5203665953515737 1.7318318403044108 -0.36177426939758334 0.19665339639411294
Ni 1.1869879936922247 6.178007161283053 12.989048372014345 -1.0875444984344174 -1.8143300561096432 -1.0392131583188813
Ni 3.9005937611200734 3.222416679015925 0.13544945225457958 0.3186972357024511 0.12702509457301348 -0.3599917235758639
Ni 4.344021152166412 2.8045986816103876 7.727738152935384 0.633906769966618 -0.10000202901695035 -1.208277846461448
Ni 5.157989083427359 5.769422608550029 0.2004730719969591 -1.5758800353947184 0.05876513385435041 -3.637160436380813
Ni 7.581037406025249 7.717549907170482 1.0780425985051307 -0.09016781653534793 -1.987924256691447 -0.0817309986219044
P 4.627343573214901 3.8225628268836185 11.582257210178584 -0.9469817743862852 0.4780184713050091 0.07848755198394225
Ni 9.085515266833692 1.6039918196236331 11.703721416975277 0.004225350935257239 0.6614368570660866 -0.12234388704726026
P 6.194512637531314 8.599205094167013 8.985346270059772 0.6721596428002296 -0.9214198667567809 -1.4342988973844006
Ni 4.041130859893105 5.159515654941353 4.984569634242923 -0.05719778936723053 0.11961543237250367 -0.02625610548305156
P 8.35651723123644 6.667555515949112 12.716695061190038 -0.9743473108834315 -0.9993086088144597 -0.24385242267741877
P 4.945222022171045 4.908417770760964 7.188826951870797 -0.7110794597938785 0.23386240134424238 -0.0983755491571209
P 8.274544966909312 5.146609186686685 9.216345221167444 -0.019725503453385383 1.0788546839699031 -0.044464658071278265
Ni 7.711240078245979 0.6184955374658863 1.441023371543477 -0.506078976986651 1.7044673322485289 1.3912784279588168
