# total energy = -340890.4949803917 ev
CRYSTAL
PRIMVEC
9.10740484475941 0.00000000000000 0.00000000000000
0.00000000000000 9.10740484475941 0.00000000000000
0.00000000000000 0.00000000000000 13.32960758089817
PRIMCOORD
 96 1
Ni 6.338580751295301 2.0171717832270457 11.727241870210515 0.531504101927975 -0.029657674965432795 0.15455158212805642
Ni 4.685532122317492 0.28146707983839603 6.262769802387419 0.17252667854923837 -0.8291476022839204 -0.40917487016873405
Ni 2.4907477292465554 1.6201526825745622 4.873784002534659 -0.23988906715429653 0.3263699217563605 0.7968851427057889
Ni 3.4672710020027604 4.280343679493438 4.841286960464872 -0.40326441822157 0.6012589020246096 0.19984259275537195
Ni 4.685104074288435 4.494959675338546 2.7413006339821875 1.1683897520172586 -0.12472241458176583 -1.0138430549852087
Ni 7.444383636231489 6.091515071885751 2.545555181035067 -0.6985877550847711 0.8134551312493281 -0.5071621827485007
Ni 4.806615070111284 4.762635411976931 11.166918803510967 1.1764455324421996 -0.7545673557741843 0.4768578753380045
Ni 5.705178957149936 7.929990464088953 12.636174537697697 0.07457099053835543 1.1948859985355744 -0.15074583522872104
Ni 1.945897232686676 6.5647813661395595 0.3000307031921445 0.11848183298869272 0.6845904123644145 -0.4645949988102514
Ni 2.7483051390704314 1.571546462764448 0.44070641109039543 -0.08132553565336963 0.24234447067332457 -0.3878393419157514
Ni 0.31825370960362237 0.10740909011665012 5.195947521050495 0.8745854229017452 -0.14353260530973344 -1.0556808169566012
Ni 8.815293969631723 2.8036508384869694 1.4100858354637908 -0.10211033360920478 -1.1656237592363476 0.3358236109700926
Ni 7.09240065267869 0.7354183898363892 4.9939243339240385 -1.4057416545719983 -0.04731112638113788 -0.14593170166952932
Ni 0.7305796256270742 7.627524440833623 2.6028188999179735 2.323095835899838 -0.8651777564346004 -0.9227241873905011
Ni 7.801302833225751 4.001229042333879 3.6195213107548008 0.6303810162015466 -0.5542743057449552 0.9810347502059362
Ni 7.838206037773358 4.032622266932991 12.684308083194875 -0.0873336895206625 -0.61923476977674 -0.05242556478956777
Ni 7.834799868350652 8.672289498307306 7.109706543419402 -0.2611292074799954 0.7039395063149877 0.18094781273339805
Ni 7.044951073287517 0.8823991541285959 0.7209303301635525 0.42917522455006085 -0.7306339848870385 -1.6330983935872392
Ni 1.7026020188947726 6.445601865964339 9.355958702911721 -0.016440147833894265 -0.1374959121973503 -0.9621962773431945
Ni 0.27077954021928996 5.078407353752512 1.445502711536036 -0.1429080843518571 0.33955531009838297 -0.5107673836012558
Ni 6.423370690668014 2.0394667103574857 7.147535971042649 -0.021017225681615417 -0.5309914239576146 -0.2941699399850482
Ni 3.3286198702078984 4.396271836128802 0.18776463405643237 1.1404346615652297 -0.0787444051897547 -0.1838367042454189
Ni 6.078773812467659 5.592438392220312 4.690782541227091 -0.18808339533691482 -0.05791589848017768 0.23758587294241662
Ni 5.248205810214901 2.9349796167635005 9.463821341791073 -1.0201846809325203 -0.661703480463912 -0.6886226734522592
P 0.1608067156307367 5.837290972245592 12.56779432042614 -0.06409477359737994 -1.153868161362316 -0.7224463068699235
P 4.195608384549968 6.304473520043873 12.551371847958164 -1.186872898423111 -0.32610561235138036 -0.2875115541282661
P 2.4984252715549546 8.5265619129257 1.3645123814765674 0.4395406269447849 -0.21452539157852735 0.680958214928466
P 6.363963088677873 7.744217619478365 5.692769207269243 -0.49377856235274314 0.04321638748647396 2.0691713736983974
P 4.722143889909146 1.0186541277012278 12.801462096526219 -0.0004509714944895459 -0.7645131541329866 -0.3890698718887428
P 4.171391794991209 5.983938405519427 8.134886126712525 -0.11142029815622101 2.054164358766604 1.421516658018068
P 4.941559488122612 0.9068789476881998 4.1041727718410295 0.16420273206457528 0.561180288836169 -1.0698339685285316
P 0.3432025345142138 5.772045523731509 3.5787201369213153 0.1350525928631803 -1.2943658365004675 -0.09347039854601967
Ni 1.5263919494014078 1.1148283231658718 2.5113249998178446 -1.6450655932514442 -0.02797591638763569 0.527397535958769
Ni 1.9703415073672732 6.7977305679951145 4.750458811661 0.7023654769596485 -0.3302440599997861 -0.45643868825170425
Ni 6.140522017510301 5.789012619010926 9.108480458061397 -1.1917646792977734 -1.2244683401783816 2.5094959299970587
Ni 8.631442787449453 2.546730947004242 10.206373561864911 0.18062771038981795 -1.25217043407934 1.1864561226006665
Ni 2.292716317676175 5.521236700918931 7.147428503665141 -1.007065112831427 -1.4661633501931652 -0.544156757694979
Ni 0.46439386042600084 8.586206307442552 8.809550840118465 0.7498267557654054 2.0908876823295666 0.4977923114978265
Ni 1.3967389336216094 1.0614042861776518 11.376006604597832 0.14788651140305498 0.041144078338477524 0.6253406255641618
Ni 4.435834402899486 6.9979386493302735 1.2864027235786017 -0.646543484894022 -0.22864049082367074 1.3036853141291804
Ni 5.5312639536847055 8.008459864479423 8.250320662003743 0.013104655702758077 -0.031759294689467886 0.030823413138759817
Ni 5.424088013132818 2.9198157876490467 4.620615451119345 0.4231626998073938 0.33174995512135125 0.5799894511228721
Ni 0.8351590450495137 7.39699780867443 6.758270914899502 -0.8324956928205469 -0.2681015250327705 0.21691086109156835
Ni 5.172286483189023 4.388166245791346 7.301718871108856 0.9171826887469817 -0.9417513792252814 -0.6931041062623805
Ni 8.203540476870776 6.852356782426643 9.240203586968953 0.3016924736143385 0.7871388619523023 1.2749092704377527
Ni 4.563246997080393 0.09085182805654379 10.731240590651257 0.3644135067926434 1.0604563839683736 -0.8829517925885697
Ni 8.217784458093002 7.015670766619066 4.875477069100651 0.5931439862269592 0.41743402485373265 0.08711488864163706
Ni 7.057337143915539 6.2301662036806125 7.15044123319731 0.6500270725672483 -0.6842947355008666 -2.2046255728753708
Ni 2.4690356760280223 5.481956463699328 2.3500765750507413 0.1607001182279555 0.5234593772466274 1.5143208837349984
Ni 2.402670016714494 5.266520801415601 11.337630732682172 -0.2453801721758548 0.5985489592926143 1.0549141139939056
Ni 1.292031099790453 3.5096022198550014 3.6650956754825113 -0.7931935527868146 -0.03906405588099724 0.261166231365518
Ni 3.479912079967242 2.34522961417704 2.889979018542823 1.3636809779565224 0.13757638772629854 -0.39420410779151466
Ni 1.099700923670912 3.4817882053711924 8.332724461299588 -0.41090522259627943 0.13011118969750496 -0.31865044162491574
Ni 3.9036340917089616 2.5557928148534197 6.662564840045359 -0.5576645623734267 -0.25172488344696003 0.8178365481464753
Ni 4.17242093174192 6.432997217619351 6.066357687403555 0.9129002593215438 1.386787996287631 -1.1988987192393934
Ni 0.6725563491777138 7.583289775362811 11.225902000433999 -0.49936968328727543 -0.5741085668620628 1.304976007916146
P 9.099709116427686 5.585862845901612 7.889008052898484 1.2873503244145827 -1.3771293901519444 -0.4583035093745849
P 8.670950709790894 1.6143968026944813 8.19568260794588 -0.7928459396394087 -0.5724363213659625 -0.15583867637059612
P 1.966607471369119 3.1667539633903683 10.577283554225913 -1.458370593621624 -0.07204822411650173 -0.8801361775166455
P 4.131228139498872 6.376531307403367 3.684009933923891 -0.83053831198386 -0.18090384686934005 0.26506273820644677
P 6.799114893535894 3.845210089445165 10.579896468684133 0.7381655173773933 1.6358921542822924 0.6464792073149899
P 6.638879212190728 7.83271427263461 10.345628514602888 -1.8935768548571132 0.5736714793246442 -0.10938784110722452
P 2.4746276226203796 8.770667685751349 5.861388254800507 -0.52276055140739 -0.5399314067597217 -0.20736229817118482
P 6.675345261304406 3.9729960872258867 1.7258377409486503 0.3072812805560256 0.06002908816843855 -0.7831017157684512
Ni 5.065365549973595 2.5943171374685186 0.8644293335726027 0.3475123601619305 1.440501683761003 0.22704846374620252
Ni 1.5063374438698598 1.2333338753804501 7.2037732853963075 0.24820118656441773 0.014305617989394717 -0.4700907318175001
Ni 6.677676756952034 0.8498429139271316 9.545665035687193 0.3057105936347961 0.25713371316735717 -1.4378174520606206
Ni 2.6702637867090173 1.311020038951796 9.350879503213745 0.9221325765530893 0.5365061831282567 -0.7130967473342235
Ni 6.735955040737853 1.935833550301408 2.7507240658048455 -0.9495965863013129 -0.012705877602442633 0.1780589212213772
Ni 4.17486171624803 6.883504107094169 10.319889166949274 -0.6299488137601343 0.5809998946652575 -0.46318012074059584
Ni 8.11473417194883 7.515913194108318 0.018886025486271992 -0.23289592366591505 -0.38503683946994977 0.22618251620148144
Ni 7.429110518258553 3.7286535218735257 8.4619011598045 1.0713722595499289 0.8042189573630407 -0.7123027906780184
Ni 3.1471639355073715 8.394231320113079 12.49633397882635 -0.17465966573184113 -0.059126630958827205 -0.07439049909643318
Ni 0.17404250713346084 4.833827995873438 10.35749182019117 -0.3775546721602917 0.4993432009247142 0.543522980765722
Ni 8.745777148231948 2.358143914287728 5.924424246892267 -0.13929851262372786 0.8981745230755952 0.046145645318126975
Ni 3.801376149788789 2.606402663735714 11.51700744685007 -0.08026135605491339 -0.42460303179834613 0.40016032537494955
Ni 1.1540357011464866 3.5691919699426116 12.64703876097135 -0.0041351052142961035 -0.45557145515540254 0.3122391387819332
Ni 2.964241708622203 7.937640684182732 7.8229201694335995 0.613258497588647 0.7015722916343917 0.6932151779189482
Ni 5.877081224138114 7.9168393714515535 3.652432739746333 -1.2542926226286657 0.12580587745393174 -0.9264911106321012
Ni 3.1712803436125205 8.751314450395064 3.674092880757087 0.6232768010565976 -1.0251458815925376 -0.4171015812149785
Ni 3.2538936132204546 4.440970979248165 9.280459227250512 0.22604984727835908 -0.7981102733621417 -0.44368833056457135
Ni 6.952465376796659 6.1225986447191625 11.601223619715748 1.715976104219077 -0.7639850495436584 -2.116213048468233
Ni 0.6419035565948206 9.060155657061877 0.4030864537792397 0.0109842669256456 0.6740144366207811 -0.6008871205074877
Ni 4.701078462436635 0.2924196449393222 1.6526315098346012 0.0066020786975499205 -0.032536282064808485 0.6247587849187627
Ni 6.0658048679277305 5.508194897140013 0.17754521504782658 -0.7348925030530763 -0.6147955030584638 2.298650301262964
Ni 8.01240337078967 0.1255555943271902 11.271209518198916 0.9149468574379275 0.2204605261160397 1.5351550468715303
Ni 0.24266953507709077 4.800094168221825 5.633985462512941 -0.6036376866694314 0.7613805220412758 0.586173468446397
Ni 8.075299108846377 8.776851613660487 2.8640793805634335 -1.3542823103504418 1.0708109877298202 0.03499862756237198
P 8.684347702359881 1.640152543676869 3.611737211809381 0.8066093119720883 0.6019183899854794 0.6121994601965134
P 2.02678920277351 3.453054342995155 1.621893107645897 -0.2283407001950648 -0.6920324704647566 -0.8371573599622743
P 4.7350855122344555 0.9614869473099805 8.453357503292626 -0.30937827229437037 0.6543210719569118 -0.5875639210360204
P 8.88859036405402 1.7604613620564094 12.70848824313414 -1.3499016647842428 -0.18608924772502144 0.0899490156563225
P 6.553561043335351 7.8796538373528655 1.4924896347596337 -0.3435382060055309 0.20200206230053597 -0.5336887682841195
P 1.8682474987348243 3.4068433706667838 6.091097952742542 0.09317009369678148 -0.7547131373234292 0.4237743652494637
P 6.961181163260642 3.9696809918519156 5.980541343501595 0.4036205160094082 -0.31745025066922744 -0.16411608588803991
P 2.2941643950510686 8.409276752964177 10.097244082967649 1.117465968584198 0.2856127944436565 0.6580118905449377
