# total energy = -340861.9752984964 ev
CRYSTAL
PRIMVEC
9.37169143753839 0.00000000000000 0.00000000000000
0.00000000000000 9.37169143753839 0.00000000000000
0.00000000000000 0.00000000000000 13.71641772392787
PRIMCOORD
 96 1
Ni 8.95918695250394 1.0759826235490157 6.833217839951623 -0.037211833163606885 -0.8293265510639459 0.26096928486336346
Ni 8.16299617323998 5.814319125386854 8.13774508815401 0.02886860340523415 0.8318835131578448 -0.9464207596764926
Ni 5.88117677124616 1.9977540664679663 12.135669243111604 -0.9244591678037369 0.15627036459137603 0.13948646026481784
Ni 5.287367665984405 6.705220217105839 3.4545347489841842 -0.38651959466306335 -0.4316031172652631 0.3979651174958436
Ni 1.3508262148184125 4.949358875234811 0.759693664596945 -2.389365762771666 1.2330465687656957 -0.6706336930740063
Ni 6.691012733068454 4.90747678673674 2.384777739977408 0.19735942132220205 -0.7444521217170534 0.42735102685712856
Ni 4.395520033442349 3.5905011209572697 5.868198853109636 -1.5714538813025647 -0.5163870437808783 -0.7721184772840702
Ni 3.627528673352857 8.456273881330972 12.692239932923126 0.787739728761095 -0.7476490313877963 -0.03797339391997976
Ni 5.279870312930376 6.684115168258747 12.131471662570478 0.8547922994352182 -0.7440003788916154 0.9132581568815948
Ni 6.940552757780502 2.194568955827553 4.468397116634908 0.03622504377030535 1.184618555171295 0.09123302457506868
Ni 2.441578623883866 3.9555191260840035 11.706372681576147 0.19165491473825702 0.9501447454952991 -0.25499841199190926
Ni 5.1280207985123285 8.856585675959549 5.19575188600243 0.29696447201104986 0.2779920446736051 -0.07483247172985823
Ni 8.536251895034829 3.1245312569580306 6.122405042928685 -0.9176503724120196 1.9562809187545531 -0.42823754322713986
Ni 1.9876513832276619 2.6611948382190196 6.151305464613705 -0.5465874786236586 -0.4077497076864332 1.3404487469014592
Ni 8.500208370227583 6.424425601849806 5.152613053698677 0.913100548257808 0.41317627801864326 0.41693085996506907
Ni 2.059869636520599 3.191145238843081 3.916956490650604 -0.01065773682416229 0.432574480039597 -1.2918343283278655
Ni 3.391390167224886 7.003427434829854 1.3645257531863877 -1.5004325557886804 1.6216359014735944 -0.931409116759009
Ni 3.402945462619409 8.7623439480704 8.219014520921423 0.4636472901850015 2.3975675818561677 0.7703343888004539
Ni 6.694901984965231 4.7603131179774625 4.723838495369609 0.06704537158527163 0.45160347164659 0.8114213886487509
Ni 5.320149842213148 8.038258961803567 0.5755549249134583 1.3151658039649543 -0.1241876251242184 0.6968872274538965
Ni 6.394764198829803 5.28616808949576 9.987156527094951 -0.319886628024862 0.8368310869711072 -0.48116884400853266
Ni 2.903518660616564 6.786051054719593 8.314069711616934 -0.08863980992659572 -3.5021345829905104 -0.1059001396689402
Ni 4.318569076034056 8.987048990790976 2.795501483659769 1.061550902584133 -0.9747473745353279 0.10841570700194232
Ni 8.141788035788394 8.166857310062804 1.0398069578941926 -1.1928591979135328 1.0689538799164235 1.3707044604622072
P 8.1960876152822 7.68660498849564 9.381206395731326 2.058944810874383 -0.4055902381412692 -1.2883692525974006
P 3.5525457711212463 1.6648622191777476 4.884923811581088 0.3662310196173564 -0.3418759878117596 -0.807386556457745
P 0.829029185640608 1.4158470091794817 12.020382445199795 0.3256626112766907 -1.4760291872436515 -0.6756272896338558
P 2.2079611027203128 8.61290295832096 2.1193920595856697 -0.530896293140647 1.7185510640351047 -1.978396005486038
P 2.159059617425407 3.012820696452994 1.0272760694335143 0.42931689233424775 -1.395747262363448 0.5402556228683598
P 8.968146289403505 5.896949327733575 1.9801568416810276 -0.29930520432908453 -1.3539238985697586 -0.40044546071553616
P 1.6441695247486268 4.5457388735711435 9.56899822069039 -1.0576124867616754 2.326195300760768 0.31566256264118536
P 4.770949987622866 0.7577434156337656 13.51964219295101 -1.0156086315260637 -0.2653483877676656 0.7701965776710091
Ni 2.802210677473993 2.8149186909005732 9.649211463846319 -0.5043589089717506 -6.06780346063471e-05 -1.9549202909616008
Ni 3.4862972851975793 6.8956529846781836 10.744124903856756 -1.7484843612594274 1.1909308705425683 0.9441185939058773
Ni 6.427968101167835 8.611487832932013 8.649202330301176 -0.864851226333117 0.7377999065078583 -0.8990489552607485
Ni 2.5922098184306326 9.21252251219959 5.904561015421678 1.72720693993789 0.5812965999700699 2.376721591645094
Ni 1.0492077014548136 8.174270317894976 7.712082868511495 -0.514620438798759 0.9169911415614659 0.6413735106573083
Ni 0.5120879569728367 3.2239742735284116 8.08420930150258 1.793977203484904 0.16505068188716737 -0.7600180944761105
Ni 2.9732440440190366 5.0068167147026275 2.1536006072329417 1.8636379012058355 -2.3027468399298407 2.6030282921292653
Ni 7.378679326875338 6.019830944289115 0.509340177078535 -0.17183890845359437 0.9889344646689873 -1.7604821570512519
Ni 0.8674287536450825 7.333470287959543 13.68009679433682 1.327216050261269 0.168910936173522 1.6598851747627799
Ni 4.528869829199578 1.5453356681138855 9.969256596678456 2.673586304853486 -0.6013702307914933 -2.2346223763477773
Ni 3.8718861527663067 4.1025047327082484 0.031008115062333454 -0.22987950543709443 0.34147463860828287 0.25279060570731304
Ni 1.887955330991707 6.907133306542167 6.011206176769586 -0.20721625951162376 -3.5527932856876427 0.38343478509015255
Ni 3.6809941723194033 1.6549657131464288 2.1945033539883303 -0.16708930958375096 1.7697990635768035 -0.26966604130641303
Ni 6.14483056308242 4.483501471531382 6.8856280864758155 1.1951695912142641 0.882546586730351 2.041013423206943
Ni 6.404042173234164 6.713298615021556 6.368464421485401 1.3070439461887684 0.759021534890796 0.04652359748283601
Ni 5.094076532560212 4.1374705130139775 11.804636739378784 0.6054706261131121 0.4219409115851508 -0.6016486812638606
Ni 7.768054357736351 9.32444862160493 4.843499998788444 0.7371630442548079 -0.7318429175934751 -0.7551995900415445
Ni 7.490080621566897 1.1134881322017973 2.403980335487041 0.09466750417791438 -1.2537745453416664 -0.2344920645084413
Ni 1.7069785999587572 0.2951145595892285 3.9767600644552004 -1.5966887446099534 3.475878991728091 -2.3941179327446704
Ni 7.528542042734068 7.2609146537791736 11.431152348315788 -0.7817621710214213 -2.427764931375154 -0.9254577842715803
Ni 8.127074480419862 8.24155906155489 6.982081533515902 0.19899155760898632 -0.6528254612479918 0.18531714544568728
Ni 7.890073778690678 0.07668761288227051 10.66352742135681 -0.11810156683113854 0.7404098333268797 0.3560065136758708
Ni 8.075736355382396 2.5023446703867736 11.621015317056024 -1.005689572640139 0.9119540933581907 -0.8124467445894717
Ni 4.405154132116777 1.101201844884507 7.177856165139242 0.22330056666799608 1.161392237653503 -1.3325786001247633
P 2.451184607484341 5.8773156344233355 12.821956323956547 0.22248398430397165 1.127902847646806 -0.7698121977483968
P 7.288364337648238 5.105069526475682 12.101460695464331 -1.352715222973638 -0.646297430321487 -0.034728147509804706
P 6.8518496994600175 8.213069119949578 3.230051815347834 -0.3439452116359625 0.4058494053399268 -0.7491780664378129
P -0.15100793653773126 2.1384418965268264 3.3813708920373076 0.3247421563449504 -0.10706844894542851 0.374414069648781
P 6.6596363105373415 1.0357780677967836 6.359616607712514 -0.47257338903003776 -0.39120748705703595 0.5148089006604811
P 3.3104000108587344 5.413669949870846 4.275476165017758 0.33364665792343184 -0.1711241417747569 0.7666649103686668
P 6.684630611281211 1.773723785522253 10.002902842846677 0.6655822466930279 0.16461616545291002 0.13799239221779458
P 1.5434332147764256 1.087181794673472 7.766619551795636 1.6340224480634054 0.16103513296987104 -0.4205394032519338
Ni 1.1208542815773812 5.892732066640684 3.5926584842985663 1.7065884923565897 -3.9612834710845255 1.332458529607131
Ni 1.0007654290344667 6.72895871121316 9.901168447749159 0.0791562959161927 0.04317653538747403 -0.3004133497915988
Ni 4.123562923098753 5.152162275346304 9.663134048467649 -0.2911864318766921 -2.252753795841165 -1.468346473887413
Ni 3.232146388357304 1.570339340549073 11.684741880846143 -1.6556456827601358 -0.24313585622636835 2.480848698574011
Ni 8.902600680328653 4.295205449579436 3.9587092498084933 -0.2753903453846999 -0.8440512588686303 0.07194409443846965
Ni 6.847126367035979 3.7713560200030916 13.89637668656293 -0.7483897662085627 -1.1144112409182743 -1.314561337611736
Ni 0.04837104756633357 5.587927178229122 12.40039609360372 0.736865567619047 -0.08618106397345802 0.9916742321976534
Ni 5.433022492441559 8.801967458960945 10.70005358826691 -0.29478031987553754 -0.7971342826021175 -0.06494658007471396
Ni 4.941064928418791 3.7058385260021924 3.655795568704811 -0.7066106253892476 -0.4221635691189181 -1.6637947942298315
Ni 1.588361102952696 8.561752267109847 11.742391839985968 -1.4874207169100446 1.4897797040605247 -1.1456074640154206
Ni 8.142378452341399 1.4198112346067997 -0.13117743770982374 0.5180482335333851 -0.8338468075318025 1.1553923113163262
Ni 8.803907399063675 3.4551082964928175 1.6230775962693786 0.22937145545242432 -0.18087556473456592 -0.20158220115429798
Ni 0.47269405251957136 2.8594248529675546 10.37870579034163 0.7155174409605741 -0.00013266892312235217 0.24549407204589976
Ni 6.087307121775378 2.4779595295785435 8.010662142380818 -0.3912257418894811 -0.7932647723443822 -0.09755151059392876
Ni 2.4511752357930234 0.6513409810909817 0.31700308183046705 -0.3165552496587839 0.6228826509419724 -0.031065096835920687
Ni 6.545938951472986 9.155008442583869 12.596280374015475 0.3134357301931957 -0.4765951085949211 1.86747424423279
Ni 7.858762957998788 3.5757407071321494 8.840930265613602 -0.8754130610093632 -0.8075860740630608 0.7333567831348402
Ni 0.3830022807650871 0.5718718502256663 1.7316973729778917 0.4995519745014106 0.48751792615501205 0.27309332182040713
Ni 4.248440709904928 6.446936404394529 6.065934979725737 -1.186909408088001 -0.26798376850798367 -0.5978994986340734
Ni 2.6346823234817083 7.582757277006016 3.889742973402741 2.37352211087119 -1.1334561733648674 0.6231603300833913
Ni 0.33740712816700785 7.675846286863108 2.9191553275798743 -1.6486993333492896 3.7910448172385163 -0.3575437762560036
Ni 0.5848806949435389 3.2279197555730947 12.998459009554505 -0.3699442068028855 -0.0979240634419991 1.1066524229084618
Ni 8.652638929507317 5.13790793285233 10.362589292782863 0.7387293603006633 -0.35614072526088986 -0.5435638613059864
Ni 9.62838194272396 0.49568468565975227 9.29187168541604 0.27216952445455705 -0.04835936513999413 0.42114129850199084
P 4.989563430987043 5.667745873180581 1.2152618884028499 1.9436238921121753 -0.23804584329797068 -0.346325538942681
P 0.7856457521934674 4.704682758316564 6.125971908644139 -0.5966021199788887 -0.23624761374696732 -0.46509764947828286
P 3.3436320282707195 9.074243206809337 10.395494238167867 -0.6936700060681795 0.1275406007568513 0.3043599931441726
P 0.6315357858296315 8.38699833911174 5.32733324360804 -2.691037410450398 0.33920666850971254 0.19279288499744215
P 5.316719803190929 6.764055695197334 8.304508712134783 -0.7796428106855735 -0.9515166861421612 -0.2098765799526063
P 4.058607730576907 3.5731353769458742 7.93734833837286 0.8126568037177488 -0.6015535504468931 0.8451797160461185
P 8.630587339837152 8.35253863013716 12.720509639782476 1.3711909131803224 1.623020954746579 0.703038334656957
P 6.126865030826701 2.666630419183191 1.9108756764470063 -0.7545213330275974 0.38904158975396874 0.8592091975559911
