# total energy = -340866.4175356876 ev
CRYSTAL
PRIMVEC
9.21343807432461 0.00000000000000 0.00000000000000

0.00000000000000 9.21343807432461 0.00000000000000

0.00000000000000 0.00000000000000 13.48479793036544

PRIMCOORD
 96 1
Ni 6.319635481810494 3.723813755282084 9.077844978442279 0.4065479740688482 0.40012715814416894 0.6569731648677781
Ni 5.433662048416591 1.5495528948525925 9.659848657834752 1.6995894353309375 0.08092701466337031 0.569660044172406
Ni 4.942991182173253 2.4829202544887163 12.836448676471376 -0.5592758727246046 -0.7719901792363221 -1.0534966648210888
Ni 4.820065489342047 4.1729965091870245 5.604188048506312 -1.0411651398389292 -0.08038245501380994 -0.16578730294287577
Ni 1.9372543754654754 1.6095323777135684 3.1105387452016804 -0.24237583813189223 0.5777356220916889 0.19089386820251641
Ni 8.878695589811208 3.178018888123658 8.77137561864973 -1.6671125457491547 -0.1887454544009459 0.6820411635799997
Ni 7.932254361330273 3.97007974566473 2.4945660404082672 0.9387506447257444 -1.0074651764833231 -0.31539748190525685
Ni 1.584434971981879 7.313811533748067 4.629776664254355 0.8892178281029396 1.2638771809933071 -0.4533456511486773
Ni 6.600470292422692 3.610608239780884 4.365838378007555 0.05092789719811875 -1.149079995945053 -0.19683105962255779
Ni 3.026946141507464 4.058565606401568 7.0101670141160675 -0.7773930954194482 -0.3980175680003339 0.18217371472069918
Ni 5.530228094478939 8.704764302952606 10.575075678944765 0.305516475346119 0.2700450219123865 1.2105404172433796
Ni 4.7575246706538294 2.6373006254285807 7.584997110504612 0.4896622261915244 -1.1404686001269586 -0.8388080081918199
Ni 2.8232185954211504 3.8866059953236487 12.26214466740562 0.6633939807924574 -1.3699855800183116 1.5104778558398244
Ni 0.9786698354007045 5.270750033678069 12.337633130834934 -1.323900869845107 1.0992867265720099 -0.2502074183611691
Ni 4.867855593428051 5.543910050246765 7.563839370958999 0.7919900193970166 -0.9788433989815722 -1.1175500436575723
Ni 7.405973556337674 0.4146913265564993 12.583002653678044 -1.3518173937497169 -0.5181464496741464 -0.8368573122233522
Ni 4.242244710904857 9.088550072318803 5.727357897450545 -0.7603572229830841 -0.9245648401436658 0.08881567338282768
Ni 4.979927856027269 6.731485384017635 9.483063047813271 -0.9747255201584569 -0.4156208829043938 0.8141009923634431
Ni 5.033282876802677 4.984534575141016 13.140733530060189 -0.15686840318669115 -0.04308783232840967 1.2996304273335166
Ni 9.225507831570479 5.455700592656752 3.7307579236741453 -1.2693916830536334 1.8607520950176084 -0.7477390199984413
Ni 2.730522193414349 6.544360453617262 6.380412848421971 1.5990842414253235 -0.7391919017593785 0.8624014792410438
Ni 4.455047493645251 8.008495562662771 3.020069231214464 1.231529617900537 1.6938311926909215 1.268687715008073
Ni 0.46238284685346853 7.81927918178476 9.326409721662685 -0.3621691908431569 4.709071599153349 -1.8674631884891968
Ni 4.070358807332758 5.996289867216645 2.530907526152788 0.1841231251375861 -2.9153949576279983 -0.27867852921766845
P 5.445363114965506 1.8335663416532753 5.425163572995552 0.544860468630223 0.7346706168502574 1.0284404931834095
P 9.37163296185851 2.7316830866310133 4.6462816174950845 -0.19119905814776103 -0.15627473546675022 -1.5406032144702952
P 8.74960610680581 8.5021792232065 7.194814450977066 0.0399423447208925 0.12124602599739116 -0.6842248014948796
P 8.081889811582977 7.342953638861626 12.659029181899845 0.5363035801991474 0.6771763792885306 -0.5521739715725007
P 6.539956430144521 3.74749229152674 11.963995963676318 -0.9015421539962474 -0.07204693856492109 -0.7235058584826894
P 2.284370660686254 1.794814620468442 8.099684646175556 1.2453667808939455 -0.3312992407371778 -0.41046659239696404
P 3.769936227048911 1.0632768386437677 11.287127038918294 1.3591442664284334 -0.4660445867725845 -0.5197209932501178
P 7.174789964333433 5.587977925288862 4.711264918657412 -0.1071844056980025 1.7926985938827966 -0.741732151682729
Ni 0.3424874538552864 6.524321225472465 7.017907223570983 1.0906041111963474 0.750977581540397 0.052041699087587795
Ni 0.6686468524838106 0.6816313509778157 5.600776312330672 -0.4705725565499251 -1.0330034299637436 -1.3134930442482218
Ni 3.642302467283458 2.809545853091552 9.853921442002475 -1.9895628207361344 -0.43331855729447305 -0.5976601289297577
Ni 8.630034105489415 7.511845175009791 4.997142244011516 -2.0285438299850225 0.2724122365929824 0.37247597208580363
Ni 9.230759491360152 5.860529854934544 9.424943758130427 -2.7025145578520617 -3.3613720842267463 0.9094259276196983
Ni 7.510555293657942 8.899785149913937 9.356953190730646 0.35494156274646615 -0.19300551522888051 0.06119996854808816
Ni 3.3139815960467645 6.303106573630372 12.03363205114353 0.7703115059823186 -0.2260274786808559 -0.47282098626446956
Ni 2.014794671588052 0.6956726308365142 10.069719513510625 0.5712091338270807 1.2762207901603246 0.9336076670722244
Ni 6.289949783841513 9.004293179728384 1.0941280365485262 -2.1430252835650703 1.6843798174700344 1.4870995861252
Ni 3.0307697183718734 2.0226629478343305 5.504602758736814 -0.0655171078662033 0.09677169500511076 0.29805102020700924
Ni 7.596986557670049 1.9334215851628387 10.561266577729398 0.42813418488005617 -0.027014066694998635 0.6263973489634501
Ni 2.443864489842376 5.757809232136231 0.6951198245428646 -0.7377474560033681 -1.8257539816758688 0.80215821817927
Ni 6.251575813624007 9.112247035439914 6.7378279148934395 1.5891836944821598 0.6578815356146605 0.8094686357977543
Ni 5.115899777388603 6.6641904312040285 5.126663837269783 0.03161479869180362 0.20142690652335632 -0.06423849826409582
Ni 2.144989767180748 8.787261428841573 7.021790687783871 -0.6379912244486368 0.6377371994563017 0.2495895822715121
Ni 0.808445114741022 2.63755860169895 6.763556441143713 3.026880818914832 1.1561163339665443 0.5866239257202542
Ni 1.5457938120557757 7.712495432728121 12.981639564123139 -0.8446552110012162 0.645439967417198 0.24429233842831477
Ni 8.333554876766934 4.236919343609367 11.017174220196587 0.8590130223847852 -0.2082292741571704 0.1264918477773628
Ni 0.3330243314518288 0.8853063804662323 8.658777268727722 -1.4541827807925212 0.35436949229308 -1.775589959226968
Ni 6.42443834164822 6.78187367768379 0.6167033304448536 -1.2085005039952155 0.2523463190810429 -1.1246524590303084
Ni 4.6255605949214535 4.576978135147886 10.896310494840694 1.3137833217951307 0.48735337555268976 -0.1587789899458427
Ni 1.4197355502272238 7.23216204417603 2.334784751979447 -0.1269137658061298 0.6706414063834902 -0.9472062316922655
Ni 5.348142914789006 2.446149422522794 1.6504446501627488 -1.1233959609153878 0.6305291117436367 1.872470154785485
Ni 3.4763684448063192 0.33186343823516484 1.6451183615234355 0.35135076007141425 0.17019288820973913 -0.413795656770197
P 7.062478152340301 6.779708519700329 9.551754757862165 1.5453818668058612 -0.5167377422520778 0.25711288723175074
P 1.5035501977827228 6.933379455896676 10.844003041991753 -0.2983050451993443 -0.8512454626242244 1.78064911891743
P 3.099649382560607 5.605160987583136 4.449915608552538 1.0072600024510525 -0.7540140543738756 -0.7320578618177586
P 7.127875136879042 1.8946053699104128 0.9122022493399284 2.1049855551835295 -1.0536360186124307 -0.9258781596384505
P 6.578726578205809 4.264661006112346 6.985179248299285 -0.22717264802889264 -0.30225425965507946 0.3649824919222359
P 6.593403585302204 8.442817040706768 4.143203935334605 -0.18132627911873933 0.5446079862997846 -0.29609646758379976
P 1.2898721384107177 0.20258876512139531 1.3812077155913185 -1.0509440736025641 -0.3599927520171284 0.055786510842000696
P 4.596989722978 7.610788288134833 7.4457387557275325 -0.15336758912228426 1.5089598765334011 -0.9824280310090371
Ni 3.2638973458421154 8.056423868322188 10.515526463649014 1.153884616422548 1.4140905407573259 1.8212085283970314
Ni 4.650298676562271 1.090391987347278 3.6538680962904295 -0.11137119008584047 0.3818944371862262 -1.081703209162292
Ni 0.9452342680731344 3.5449256386570904 0.6915431678229521 0.7285369931486937 0.9165365705225506 -0.2657415094410262
Ni 8.469711066892817 8.42347803386726 0.9491785409783239 1.8769623862288836 -0.07352609421360885 0.44910693047698136
Ni -0.04668264881105882 1.6971798155717044 13.332001743631462 0.3794302919164498 -0.7466594137810173 -1.1962283714960817
Ni 0.13025314025352921 9.067958037880357 11.330561029410338 -0.1327576261814165 -0.08312685052816651 0.24703441994982617
Ni 7.450640304864558 4.685346595579653 0.3280002435863772 1.2135828036141292 -0.4310601002775996 -1.2151483483290364
Ni 2.572355099362986 7.178429272433293 8.679571077463349 0.28960288943965606 -2.200011471142127 -1.2291642029921541
Ni 8.92315042925886 1.8016878453861513 2.210387673063312 0.145595144265717 0.4184089871724923 -0.27950899553876374
Ni 1.7279895530044391 4.0440083740021295 2.8801373741029535 -0.5934054674184619 0.5683207565356923 -0.461686824024521
Ni 7.1412346223089065 6.782122440515932 6.647655073617148 -1.087500018349727 -0.49638334696544184 1.1184388740204285
Ni 6.311868553384717 6.677430141936935 11.607255320883102 -0.4149606236125757 -0.6446732644545026 0.2878008032339108
Ni 1.3701303988104043 4.627873167916555 5.219533451915261 1.6604053089323083 -1.2128644373908661 1.586034607330217
Ni 4.356362356790579 8.658208799589087 12.748150769874378 1.0988838347066363 -0.07245702951914618 0.2594081110238307
Ni 7.3215139681062515 6.896313793907474 2.6854979634842393 0.6465344860329575 0.07848549510141321 1.7643606661700517
Ni 1.1255136138704795 4.603300928163832 7.99395030773303 0.9830659217033522 1.1328990153098166 -1.42855093915703
Ni 9.166118008756062 8.992214362212142 3.3283582450569438 0.18688448993280718 -0.33207648522283456 -0.3644461598027917
Ni 4.017713221300866 0.25708072417407674 8.482247792288966 -0.7418326818163353 -0.44522147937964607 -0.5760600341614789
Ni 7.936722878870606 2.2042506018599797 6.442969329955176 -2.8672605640146167 -0.4826323159279365 -0.974376107238838
Ni 3.835572760981568 3.393825251726214 3.3513098410254503 0.9484164499502827 0.6023642192736465 0.01084002803829746
Ni 1.6450686089570068 4.205003993589333 10.152906725922834 -0.24634613563354996 0.15583353416427353 0.22584030237071429
Ni 2.5245097146476176 0.8401393422435961 13.09777126760539 -1.3030715918045814 1.8303909662272477 -0.8709354848539839
Ni 7.208584855751876 1.4049203415574159 3.795930100320136 -0.0035599494371164496 -0.8826517448496477 0.34400794655309785
Ni 8.483577291425194 4.657862909347043 6.150982573712421 -0.3572902654843008 -0.7139490680321897 0.571973522796931
P 3.1689344380313504 2.8049759877307157 0.9327012280522763 -0.19429543768489765 0.1677703948111756 0.450447760775592
P 2.7123625066679615 9.259966090541301 4.247670504677028 -0.4664554490577579 -1.1843429329124053 0.29921701549065244
P 4.078263937331947 7.018612972939209 0.5481608780952462 0.9658166477046011 0.447056732816172 0.25208072412448196
P 1.0131004540568438 2.7657175274433703 11.591626565617805 -1.1997829216165594 -0.5417581755558153 1.0200072748143918
P 6.135532559148739 5.061770827802086 2.10438338088072 -1.1511191378622692 -0.3218527506122973 -0.24480244529551387
P 7.135780266878231 1.490946214287513 8.310667774866019 0.107265395447583 1.4055331381056182 0.5988330661919364
P 0.2722340660268336 5.59088937176875 1.4774079881560358 0.07870403887012252 -1.0767908594623392 -0.21036611799451513
P 3.4433935493901235 4.968033307275577 9.09537538735773 -0.4824505389344336 -0.04510126321401265 -0.06339826175098759
