# total energy = -340870.46399731433 ev
CRYSTAL
PRIMVEC
9.18641934644624 0.00000000000000 0.00000000000000

0.00000000000000 9.18641934644624 0.00000000000000

0.00000000000000 0.00000000000000 13.44525329102073

PRIMCOORD
 96 1
Ni 5.478275335289323 7.381067592244295 1.42398688632117 1.1483207491815255 0.4851923633456289 -1.044185414722492
Ni 8.244508347242123 6.774543431335522 11.849153714271567 -0.10325498873660927 -0.6572382456037068 -4.27506861419734
Ni 5.2355150136460535 2.469015595527825 2.0511272098664306 -0.24625768968480172 0.34735372309687923 -0.18556679956264815
Ni 1.7865013725350014 1.8007954412732488 4.9650769286985 -0.7198476929048119 -1.5957001554444388 0.44205208051272904
Ni 7.4824581042391785 5.29720182057236 7.5072246912046765 -2.896965033057585 -0.9868850383391261 -1.2627875474735542
Ni 4.685652688198406 4.972618060464071 1.727163533074229 -0.3027777362587173 -0.32292207241707616 -0.4661988529622616
Ni 7.863409734384669 4.641236349927566 4.01403998922337 -0.5445858748125976 0.7699093854478933 -0.068423739990037
Ni 2.8552034847869416 3.307019154936829 2.698139596068875 -0.4381799991518325 -0.988416644492304 -0.8242627633877934
Ni 7.867580368836574 8.499872436436084 2.186588314493969 -0.9764265620099637 1.9001923032911014 0.8389296213713487
Ni 0.26608555938959627 1.4395486809500846 7.368281014945602 1.1532120158355559 -2.3967512566024594 -0.41696299875458515
Ni 4.170671197583101 2.859769135277243 8.158499576054002 1.2143173677873087 -0.09179455350549354 -1.023659269744682
Ni 7.729150213427416 6.152227815310395 2.0821047350542483 -1.179032833553402 -1.561625582358233 -0.42358564627742534
Ni 1.1584718035823738 5.180506733694495 1.9299987569390298 -1.6303917932893532 -0.4626263051196549 -0.9587178318762907
Ni 0.4734754100413015 3.5942325605289294 6.34480180859639 1.3781403479149619 -0.2385171265074344 1.2688203839311956
Ni 3.7344081356426297 7.8737812019974465 3.0059553846682157 0.02373822415720428 -0.2557352901579338 0.4246691091495912
Ni 9.368769924615476 2.793874948221042 3.5966724735474886 -0.7434380786302421 -1.0525816092059874 -1.9807920165220403
Ni 8.841276530644457 7.405705569336828 0.31098694060990856 0.3085948571611266 0.3584806862479762 1.3630559427780138
Ni 4.738373549695065 0.4814014527838208 9.330387226670654 -1.3405348788573621 -0.09405429607394769 -0.4377164292518526
Ni 1.1578011949590499 6.7578976392058925 10.226930325686089 0.2909447481795312 0.6550967737806717 0.22389577704983374
Ni 6.859177914166804 5.455447082837817 13.208858630158362 -0.725490493012886 1.4212742029899588 0.44251719307460563
Ni 6.1301161035797 8.42873280384676 10.680398632703593 1.0768880471618358 0.05083662303589309 0.7282693413096039
Ni 5.265866943666086 3.9303912092041795 4.139510862647281 0.5109059660616492 0.25803282794285887 -0.005142720543204046
Ni 4.2491415929315 2.8838191815219294 10.337423660761132 0.29239947834818675 0.06435779745077949 1.8289632326417857
Ni 7.178139585542569 3.261169735224366 0.16051247059746168 0.04338633740543496 -1.8364086331762373 1.9522941661926636
P 0.3214934485893004 7.190192167923405 2.3294307071878193 3.0145464657191954 1.221894408803618 1.8957075280468707
P 5.780802502183903 8.733418779323271 3.21201687906057 0.3233141656491722 -0.9829275963532751 -1.3180073871788076
P 5.3158778114109575 1.1136880085316307 11.32473501490639 0.15823314474470168 0.9528068657084946 0.6427007141091642
P 2.6266361812674464 8.524501227109118 5.021694669346037 2.796748316926667 1.585667196688469 2.4538462018432385
P 9.390909195604664 5.739031852728369 6.064575593674156 -1.2381689775939257 2.0952935247067463 0.1810210891734947
P 1.5335533116689062 4.544576843973942 10.038266991180219 -0.9771544413149236 0.27391916015581214 0.2946761901975054
P 5.033018768660714 4.318489873718795 12.764318604250565 -1.2243220444085043 0.9003234510977979 -0.14792379239889364
P 8.276541392030213 2.9362185183361738 7.832599402031708 -2.84103402621792 2.095712100301404 1.6842690029237835
Ni 8.275466580948995 1.5992453974961602 9.847223455382522 2.162573123790011 1.0502182511801332 -1.5114098807357905
Ni 3.1012433581908505 3.583879465755147 5.048746837482535 1.4211083668360558 0.5034718783811071 1.2907428950358997
Ni 6.2076494841393455 0.7304765191897328 0.8240264221434237 0.9834366747792096 -0.9985889570396158 -0.6569986187890751
Ni 6.193309483303611 3.343875069961154 6.831923644801359 -0.11094053030632507 -0.12556625063929988 0.32741687496363614
Ni 8.674717558733681 8.509646786781516 9.780924147226477 -0.3063032329134725 -1.238369523640506 -0.29342226318574627
Ni 6.376192722661599 2.432279103956969 9.032091324596662 -1.352049307254865 -0.10259524366542332 0.07572490163714056
Ni 5.82911388232172 6.561822701449367 3.688853599996039 0.9176125771955486 -0.799114803367256 0.12866134462485584
Ni 2.5144240671044042 0.720742589090088 7.106569109878808 1.5656226193327683 -1.0594886207384657 -0.11545487323691084
Ni 0.8023777059554069 2.8304368978214436 1.0059386569605173 -1.8163455438777751 1.2094322717808654 1.4013718076390769
Ni 6.009847499517273 6.196846254810182 10.886406845862862 0.4837224636683218 -2.8519355036217724 -0.975197574698869
Ni 4.928955008592033 8.761244443981466 5.1412366276262045 -0.27983372586803423 -0.5305607641780992 1.1563716445104602
Ni 1.7807782331880035 8.525906749292249 0.9243145637985956 -0.46238616408439076 -0.12721921286169058 -0.20984135583929667
Ni 1.0790092749282347 7.287981603475233 4.697193587013226 -2.1348985406928778 -2.278352470245876 -0.1038813094666985
Ni 0.8388707574095767 8.663133483747224 12.053602992042096 -0.08464277295206067 -1.5969432838229207 -0.8639677952868992
Ni 3.440525389495281 5.264893183199341 11.109920700016735 0.8359684818604958 -2.013686967477848 3.228068098623557
Ni 7.8146941517889585 2.798468157969836 5.378141525481711 -0.305296646025829 -1.2116958710040615 -0.6172231386633499
Ni 8.932249642929074 0.7708361346104373 0.33004967970935417 0.35533905529520093 -0.6020112068096019 -0.2638543197206424
Ni 1.6783496557898936 -0.19200076070934527 3.2003060314850442 -1.3904497614099343 1.6971862252060836 -0.34536703168415356
Ni 2.0569403761245044 1.9610525294086774 9.259786836905837 -0.16377695738106635 -0.7527305596757617 0.47241372352372185
Ni 4.847002960254047 5.120023347722373 7.270265593474134 -0.8343777403346083 1.3173872370963053 -1.1797468289012907
Ni 7.57513070413085 0.9589795177727453 11.778660805614875 -0.8549846179516825 -0.8698011141392246 2.0192485207260256
Ni 2.081688590251008 3.0256115664672056 11.418851719943083 -0.17632625480098665 0.9175575555878972 -0.5050255960214721
Ni 2.249028407819077 5.252261856390157 6.458480993953196 1.397027414627452 0.4451602871244075 2.3647754750268115
Ni 1.4538243768493369 7.528592302956067 7.211644294734173 0.9359075188499946 0.7272774097099798 0.3994090490312218
P 9.01385260732615 0.7884520126390128 4.647015526433498 -0.17675022971228269 -0.20863885089076326 0.3777094525706011
P 6.751761110981503 8.017824259719632 12.890609824935611 -0.678135143657374 0.23565600290955543 0.5847837871877218
P 5.186707566855367 4.691982131232244 9.270314473650073 -0.05334653394194038 -0.3844377724333702 1.504931986320931
P 0.6684902349878056 1.4571131150294736 11.644974517234271 -1.7677174984574267 1.4177170817663198 -1.5950280690780787
P 2.5150763028887333 7.418437946760485 12.480260733755888 1.7621472034585008 0.5123025892988596 -0.4149439114420273
P 3.0718835614765583 1.145904781709673 1.8704496298298128 -0.10986478074364306 0.0015182364167393209 -0.3819674565160067
P 9.010701665438479 4.819067058561881 0.11202379256334112 -1.2826027824272686 -0.18099614947283021 2.0565277167924583
P 7.76878961355951 6.262887424578344 9.59304073973595 0.6489700920576437 2.0404079284124603 0.014185290361446539
Ni 7.411759419785739 0.5346303232786969 6.191498840020635 0.8485200932732612 0.4810338610925651 -0.18775583679416696
Ni 4.697337813799338 6.788203637128436 12.582229990179117 0.0770284509399125 0.48402071163503096 0.9819230663481605
Ni 5.455107185316406 0.952402041412472 7.281236934280104 -0.9874085149427639 0.105867743769108 -1.1071758995120997
Ni 3.223790194288679 6.52280797784311 0.9496277427242004 -1.3686082400548107 0.17575624123012956 0.507074765241017
Ni 8.725472526457857 3.790684141484856 11.76926217982689 1.45602317643537 -1.000578733776135 -0.20664778860266347
Ni 4.0880209813632975 1.5395612300203287 4.044305566900125 -1.3865928495576894 -0.6213533587816394 -1.5972739276894623
Ni 3.96581404278688 6.012015494518704 4.998770878131755 -0.6280539107302667 0.2120792440308799 -0.21656016262036898
Ni 6.485428436907423 3.214420046401139 11.438575881246354 -1.354851038369718 -0.2831548198214672 -0.5402216843066309
Ni 4.016109689536177 7.391981058607431 7.08542013491146 -1.66771855476427 1.1336037546863251 -1.163095336387539
Ni 3.6547710650180365 7.415672834491711 10.367043433147206 0.19731699812004083 2.0081033027424837 1.0055746443288296
Ni 3.952319192544923 9.21452994125097 0.06800063304699823 0.33767840479064426 -1.6354406685671705 0.5585821890916897
Ni 2.1327558962381015 1.5470297890718683 13.175703004907668 0.7807728105249585 -1.431446001316638 1.2370253509077858
Ni 8.178641719444414 7.5203612710862275 7.2038321635934235 -0.1606533241504201 0.8542050594731805 0.16727905699705384
Ni 1.2907746171866412 5.677602265547995 12.421949017352995 0.7688500909454437 -0.2657507654124068 -0.746816765294488
Ni 5.348443668529907 7.115074815691625 8.780557053691247 1.6848431302596987 -0.42467887934160414 -0.12179881317706766
Ni 0.23712904649124802 5.677997281586392 8.24577239856499 3.3209705404812486 -0.7888879834329252 1.7811036899563453
Ni 4.466326922693484 2.2236922628447284 12.998293034286341 0.5754727941994411 0.7428176714374239 -0.34794996191998134
Ni 3.077275989721642 5.672834513828747 9.047687108977719 -0.28419225994704606 -0.1462155514585353 -4.363641832552059
Ni 2.665485549322747 3.821192240636347 0.12475984455479759 1.3956757856955642 1.6492570056249725 0.6264526276814179
Ni 1.1009280718494805 4.673453123105609 4.487313298035724 0.5911161571636528 1.2038069551742878 -2.8675618973051193
Ni 3.1017761705217106 0.562166615722718 11.140494941388607 -0.5230665126835831 0.021843064017020446 0.1024242653051978
Ni 7.540727563112381 7.922349801881197 4.873541607540631 0.4066842425363964 -0.6781675395572063 -1.454917859186333
Ni 7.0188930035518755 1.2569226613380282 3.595341361362288 -0.03644692997312433 0.0629362345129045 0.3925228634343498
Ni 7.815971064099123 4.14358963290421 9.744273089356948 0.44140493384703333 0.14929161928069773 -1.5181281732962306
P 6.388998591441236 5.352522438786836 5.56312110576905 -0.8513434216546693 0.6328783287021036 -0.20068514326132533
P 2.5818340133777076 8.799882524388323 9.075397943392193 -0.5981720355691699 0.14593144455921317 -0.9177071937918841
P 7.922965291987535 1.8977305398118012 1.7487295714867672 0.4802399044363601 0.6403468691650068 0.3429802766195319
P 2.8407256876587423 5.4156239543157705 3.0748085174445903 2.1372307883704806 1.0900333262945419 1.3421148217499725
P 2.3445212384965077 2.9889944983498187 7.4337324165820196 -2.290149205770488 0.3579852346687964 -2.816647369843439
P 5.592710562970781 2.0321554163200113 5.302444510179633 0.8389453051006325 -0.7153248653337938 0.8418138848976793
P 7.099678376613667 9.148084569024912 8.284347092677313 -0.01600563139963695 -0.02381818546552027 1.083747236175514
P 6.566599639588112 4.2556180186773 2.254365717547176 1.0802546496412233 -0.19169810927136663 0.20826835492522194
