# total energy = -340863.432242248 ev
CRYSTAL
PRIMVEC
9.27092286978329 0.00000000000000 0.00000000000000
0.00000000000000 9.27092286978329 0.00000000000000
0.00000000000000 0.00000000000000 13.56893273917576
PRIMCOORD
 96 1
Ni 8.79314574383649 8.725616342542711 9.66823092326267 -2.2661443582154583 -1.9173981256464268 0.49419610950613596
Ni 3.1061299573679344 1.7304918982282231 11.655074960570323 0.05847151387333156 -0.28629567944329404 -0.2349201531847954
Ni 8.629486144572475 7.422068978688617 0.3918995192957903 0.3373174219067997 0.09920267304410657 -0.23335512269052072
Ni 2.5441173494834985 4.845345793901683 4.100924999680686 -0.27002522441804466 -0.6211240163796529 -0.5879436729729424
Ni 6.034239656135764 3.030442144056235 6.824685019245125 0.05699261533495992 -0.3256566977394198 -0.6333848360248768
Ni 4.793224666214473 1.298337105269923 7.994760762486054 -0.08869174621045371 0.7993019796773977 -2.601871552817003
Ni 5.816799434012712 5.316883466691941 4.528129119891749 -0.6194296593963654 0.5728196728473102 0.7082484181029868
Ni 8.040699111792867 6.711638168537276 7.8656112460578385 1.2224381971222302 1.0183779667410848 1.456969085288407
Ni 2.4642483500126144 5.467072415203643 10.824480012317775 1.2101840623452256 -0.08971093150358744 -0.9948058358480996
Ni 4.298528228400622 2.7840673720378106 13.4581961946958 0.48689520496934857 1.195510776603767 -1.6847695967092855
Ni 2.6948996370510487 6.371525096617506 2.2307870462893726 -2.7375193560620206 2.519873673686957 0.9990039330898473
Ni 2.203605627885579 5.009422584689343 13.001249100125772 0.2603637900688806 -1.0072476611558783 0.8063241766315017
Ni 1.2119970017211898 8.531918953576355 8.044083925688028 0.4084675596890643 -0.9279926348782921 -0.34398403529369787
Ni 0.03107891432689985 3.227829360276151 4.642189282455914 2.0951580275701462 -1.949514289454681 -0.4277176661679279
Ni 2.493257067289967 1.4224376771697773 8.463743368967064 -0.28383539082825954 0.6526094885824438 0.960817651828113
Ni 7.806849356406498 5.330928914654609 3.374295106212402 -0.4126042075652572 2.1059993411600244 1.3580489764817254
Ni 1.2337558574098912 4.3306612466439285 6.700325788600611 0.8191678653633893 0.9856596505724572 -0.030889233379688737
Ni 7.4242198327660684 1.223020128868129 8.460935206466806 -0.49249223944115184 1.868353818624266 1.601187146700939
Ni 5.665006615865669 8.319169818363605 8.141767003218494 0.22701915317016386 -0.8560038032448162 4.2973194551757405
Ni 8.944104178936247 3.297444719188149 8.04583427590278 -0.2527530676011583 -0.05593409216345851 1.9886269391854268
Ni 4.651305380793663 7.226350528563276 6.41151058642806 -0.9437660956624649 -0.7988561503892306 -1.6863528820360054
Ni 0.9489160269115257 8.532150726645046 2.1143377669331422 0.2779375372865859 -0.5875178982894332 -1.3835023835578237
Ni 3.947744324398322 3.4207943463454447 9.806919292105928 0.17286452150463133 -0.6676373294498437 1.3391372271788873
Ni 6.140985060652044 2.833435035668972 9.395509115887739 1.0409753924256266 1.042451976971153 -0.5345668000136987
P 1.4845065049651995 6.651340086986653 0.5104579335771079 -0.7091884134187528 1.7055759919316755 -0.4405168748151252
P 3.144316888165447 7.338936614410565 7.917784290912434 -0.4378737807653233 0.6918846320329827 0.031219105915281712
P 4.791231417823732 0.919197156951704 9.959311938954743 -2.718673169889795 0.6936185840049538 0.652187827663993
P 8.230039167067833 3.7401034676195204 10.255630098906956 -0.240937820133785 0.9023127136136848 0.08473070468017666
P 8.107746425103768 2.3787797132021593 6.3421872615826125 -1.2883813367822585 -0.7538122227757146 -1.0554900411020338
P 0.14334515333939687 1.4093471342501152 9.500817527378134 1.7022009048118556 1.6745869997493288 -1.1445471410717063
P 4.397995958560007 4.518045137219145 11.892802742942026 -0.023886062588978216 -0.0709876440624713 -0.2016624195729301
P 7.069301097218323 2.22226799537657 1.1525638972629202 -0.45838629889637833 0.3392416355127061 -0.18996518574065996
Ni 6.358972267217207 0.7249611273737093 2.974120361272072 -3.2412462878767276 0.8694257330776769 0.10101838609660668
Ni 6.926760659973421 4.668438046031295 8.240277047058047 -0.23260770300153485 0.42356919121719316 0.6537909104850547
Ni 2.8080048945722065 7.605559081709826 12.116323763295252 -0.48044122181388865 -0.0719813754343083 0.08817289759250621
Ni 5.947102253230734 7.891168398796246 4.357648902762296 -3.831775205078343 0.6816130749036455 -2.141754644382763
Ni 4.170246470341584 2.485886683705597 2.0403873245443496 -0.5829472481996154 -0.19969526854423028 2.0133365261169645
Ni 5.726806586901409 2.1049351970824897 11.472587044298132 -1.8547807079255216 -0.7203125483563724 0.6793299352964236
Ni 6.573019331614625 6.205288180829647 1.62572120025719 -1.2343177221686354 -2.0643940069144127 -2.741540818516588
Ni 0.4816392702160816 7.005201937341168 3.990297859809971 0.013135251830377379 -1.4675818278072468 -0.8424211794643749
Ni 2.2642930881916037 9.06588702014919 3.9848289424811405 1.7710547903607758 0.18580565504633162 -0.6569430829607913
Ni 2.4021238966807066 6.629145497928812 5.606520072619933 0.012863743336545587 1.337767343414554 0.8607114931331306
Ni 8.50554317835933 3.47198838175789 2.471065259508951 -1.5715238153085516 -3.3096797980587773 -1.5863436539302034
Ni 0.4240798192451093 3.4594819069713294 12.288893646412022 0.8161172514625235 0.9362967838686133 -0.9487753759515982
Ni 4.389809733773845 1.241710309127363 5.234636475536289 1.8901040658171642 0.5582422892537676 -1.3931188236016654
Ni 4.02892979489937 5.477288972071537 8.678404168450376 0.707335162260098 1.450196542451264 -0.17953524865658757
Ni 4.222886769702661 6.237226509695252 -0.02076593986242967 0.8345250645457498 -0.2059476772118453 -2.138543336534317
Ni 8.071135551173354 0.31251353490005884 1.7220599939892485 2.0421241397726186 -0.689432056727432 -0.9307244319871585
Ni 1.9725093365552586 2.4401346799460137 3.6657423233530078 1.154695542359618 -0.9710182465101985 0.3924866108797757
Ni 0.5900729097647059 8.697636697690346 5.456691763003114 -0.5136639884227605 -0.1327789663376552 2.805401107505659
Ni 6.962574234547538 2.960826785144237 4.285475696264226 -1.0829980167143156 -0.32323806099559815 0.9321377673949172
Ni 6.358768306916759 9.111852255131971 10.656334213536176 0.9149414581212889 0.25707123536053794 0.0316209693393907
Ni 4.267822932260452 7.925470812962499 1.4581177504563287 1.0904791555827091 1.1975452905352924 0.7277111548132886
Ni 6.91919558701135 7.4042873488586505 12.138210557717873 1.0162169545340238 -1.1116922993252145 0.5701462397802052
Ni 2.7793577432820116 0.13486318611758477 6.319879567267251 -0.11110816623244091 -1.5628090611433731 1.2122939095993768
Ni 2.8599591456499582 0.6511692177639014 1.0419228510080838 1.0626145679619572 0.13494332097882566 1.074377107814524
P 4.560487421557822 3.483984955793331 4.018385047366208 0.3938197278689024 -0.9187839717958305 -0.4661646572902165
P 3.26544149386331 3.7467507192295755 7.799639359785661 -1.4231120275296456 -1.4305787682203364 0.02284502291897356
P 0.2972174394587343 6.377894220545132 6.224394625520249 0.07666926782828086 0.1759472741950131 0.006890299361930069
P 7.0003810575123975 7.857950682591467 2.5334149962636276 1.153694097678297 2.218243677879438 0.37050110774761996
P 0.5655800589577267 4.852150651198448 3.1873015214848603 2.2416252900281717 1.222817949059152 0.2579875765272202
P 3.9382601704274904 6.829378887432253 3.9866747832001947 0.09458548598706935 -0.29631912511756714 0.7907926566548059
P 4.126024168835361 0.47474263078411527 2.809705181804123 -0.1012065908480128 -0.42416620137124367 1.1146878916184286
P 6.793843440540565 7.185354508173229 9.84318899607923 1.0471491253365062 -1.1471884353492954 -0.9670024404825861
Ni 7.539160732991258 7.374907794671392 5.526856887634047 3.914818494753767 -1.8004512412450218 0.5878313157647941
Ni 2.56026729690988 2.4753456445415347 6.154243407273438 0.7355193380037979 -0.19542826573776023 -0.5361413435896701
Ni 6.7867419137158755 0.5142608660881881 13.055714844175858 -0.5689465630451491 -0.1863209041198533 0.5174661357776701
Ni 1.674708756055698 3.10359899545783 10.113684854902452 -1.387271620792269 -0.3521915108051547 -0.10796473550745278
Ni 4.771586332521492 6.978418241523248 10.691328238539404 -0.7586032164064548 0.38004427135136487 0.03399306911599307
Ni 1.4516688965930733 0.09744666900040103 10.92018189365707 -2.1805482202111928 1.5326063123077476 -0.4080446132190328
Ni 7.431478965277467 0.43689686994371596 4.963338681895395 1.3100325965034472 1.8820709111000424 0.07545879245994745
Ni 6.9127152120107525 3.4494507685583877 12.712108488564777 0.6373049970148895 0.5457133035488214 1.5572125408922017
Ni 8.083224834436272 9.044332124760938 7.165522150231486 1.2992840997376915 -1.9391951669168603 -1.2187802886546688
Ni 1.4017542485198016 9.281677018023165 13.097127128997272 -0.8376150163249833 -0.23507956158079513 1.7851655187305449
Ni 6.3409310515503075 5.228299799838279 10.826447302124823 0.6730279043377958 -1.4139774122182294 0.22338721284453142
Ni 0.5704556372307084 5.190947252088054 9.49365295827876 -0.40985518406521027 -0.05011080061346209 -1.899723848295115
Ni 8.914288891379849 1.8207443311764588 -0.12256159872374671 -1.1262411436736668 -1.2196315809113705 0.8041857901322602
Ni 8.169537125216761 1.7425533687228973 11.349150270467007 -0.48292439324705866 0.2299142153297718 -2.5331626774863794
Ni 3.0412056853662404 8.658133295862669 9.751897292690984 2.835297637954775 -1.061788986736868 -1.5024336453791094
Ni 2.147117895584233 4.005159148974431 1.755155334013759 -1.692870628549865 -0.9755081639607522 0.037149612467103764
Ni -0.11609513010727066 4.892201037468235 0.8079813134865141 1.9643937776696747 0.5293042660631788 0.07791753841308517
Ni 0.7685261204571252 1.4763110092562894 6.898770817106033 -1.957239683123397 -0.9235947629209127 0.02005203355486869
Ni 5.944478582093153 3.9949425921065362 2.30169848020149 2.71120874319195 -1.7651507661715147 0.022064178888891034
Ni 0.7386403738878462 1.827586272164214 1.7270533129811252 1.0262627688058004 -0.6313649773813707 1.8311908364207237
Ni 4.132207874308033 4.9554843561435975 1.7909902317101962 1.8132499356715868 -0.8732929293425669 -0.4495134218867806
Ni 8.205962580692225 4.583831605036369 5.867030220551677 -2.27507277105334 2.5393538938987557 1.6142637773792394
Ni 3.931807608195136 4.279773151682154 5.84937652945563 1.2867795395127775 1.5726335034329626 1.005572073225668
Ni 9.0315382513692 5.650710852988814 11.56174828963897 -0.017809260267279005 0.7708884615317111 0.5132289577678709
P 5.95359189915408 9.12542488603451 6.373341270383768 -1.0075996451786582 1.5320566104518647 -2.1542931431694057
P 0.040353545443634814 0.4879332996694516 3.778567599007187 0.7025539388213706 1.0603147161841868 -2.0063467250626927
P 6.398772338572808 6.075764119122425 6.6941782397266545 -0.8848610937961406 -2.1060057689179277 0.100621150658188
P 4.906348465581127 8.292858939605814 12.487013265529002 -0.08458775134440916 -0.027934007406106732 1.2855004156900378
P 8.776226309822055 9.050478746542622 12.206232245009552 -1.5251143748060765 -0.6536412722810678 0.5983085611470341
P 7.637061677206293 5.4322879130545125 13.160724731953781 -2.2970737008044635 1.5001458777861971 -0.23368422389516533
P 2.116996667577164 2.4602711241538793 13.720497484902388 -0.3619431908752799 0.4544165156153529 -1.430728406424323
P 1.0216464158667293 7.231505161610961 10.369622583735064 0.7425554189149728 -0.6723738156935646 -0.2908969256607313
