# total energy = -340897.1803304597 ev
CRYSTAL
PRIMVEC
9.02924592500949 0.00000000000000 0.00000000000000

0.00000000000000 9.02924592500949 0.00000000000000

0.00000000000000 0.00000000000000 13.21521410141977

PRIMCOORD
 96 1
Ni 6.556821691773249 1.9183806778235852 11.402799923402108 0.0556489568228719 -0.1774490555515202 0.12006306143288355
Ni 4.7439477526306035 0.37585500274097455 5.977122432938059 -1.5058917791310389 -0.21788196675558608 -0.028946250720704985
Ni 2.6814241927956766 1.728161553836305 4.720685706343594 0.9075670200340886 -0.7679401775366645 0.6218662938623162
Ni 3.5981454734801863 4.397856756170147 5.068510318022429 -0.8239971684312326 -0.16135703508566404 0.09283199363107238
Ni 4.985931543529122 4.571127985548602 2.4380878208569863 0.9990108750683827 0.9983351891575967 0.6382871584225008
Ni 7.3043890792229496 6.023527339465814 2.614841630390275 -0.2941825383905385 0.32229086659098044 -0.5602747463027641
Ni 5.128656833929604 4.475806236275629 11.612882485508703 0.09608161091662162 0.027806223578990825 -0.7239272622908242
Ni 5.791349309646243 7.941303057812153 12.332437540388122 -1.2892195164128377 -0.2249224185421352 -0.690667728906746
Ni 2.0162757621863365 6.27114537982406 0.35959513667194276 0.38341061672043647 1.2779238888943603 -0.6971970453848315
Ni 2.7612878730381167 1.606925868746961 0.5061966823497646 0.1826740513958854 0.6355206514209572 -0.5773347871088443
Ni 0.5688497169268443 -0.0012947938662256585 4.748993295255756 -0.10925877172852796 -0.48297555819996824 -1.016262977280611
Ni 8.652202677543986 2.4825008757327933 1.607591324171932 0.4279482941214952 0.2927746022994184 -0.8085327542470463
Ni 6.8298299716839805 0.7448360405561639 4.863912119893137 0.43126913096461206 -0.20626006624594154 -0.4126939390655861
Ni 0.9339219941793483 7.374112916287068 2.3705057209272384 -0.396370262204898 -0.1953321064795281 0.3995571445733119
Ni 7.494563056980584 3.9482544843790697 3.8501869414190732 0.3548140360296664 -0.9052633116015765 -0.613718210833885
Ni 7.486463823382227 3.9474057352617393 12.568725682954598 1.117791984465049 -0.6160813117494228 0.8655762774245995
Ni 7.790821645158619 8.831758262089059 6.9411063985135835 0.05175939196047861 -0.33125296088027467 -0.12423261942954088
Ni 7.06801245004637 0.48727950920381363 0.33213358810333243 -0.2670584284802368 1.5620927518026388 -0.13063929428683307
Ni 1.873613676507359 6.3968415124023545 9.155817898482635 -0.051510509174466125 -0.0020062317967513834 0.9872861304322867
Ni 0.12355529836851667 5.09839983082136 1.2410833968167092 -0.5161780130938659 -1.0146444678405817 0.3937076277710703
Ni 6.216554558937029 2.134775585759179 7.135475363929855 1.6970808099764707 -0.17765011581873275 -1.443992727633397
Ni 3.5530173023267984 4.275709117241969 0.39315413501644 -0.19111986817039342 -0.32331005188411416 -0.17148923842365948
Ni 5.9323500140742755 5.597843540140788 4.760754791002936 0.028094187133054838 0.4702452551174934 0.5621315970058448
Ni 5.488192377578415 2.8497383661590834 9.301912000539245 -0.45745273133851533 0.08984848552271622 0.5363593731377472
P 0.3015542409154214 5.488120143610983 12.315681065792994 -0.3662199638737628 0.46042261260011674 0.020567282628390384
P 4.105453656003816 6.231696604360044 12.585165231017617 -0.7323723077343839 -0.3077772463558377 -0.5921551399511286
P 2.4394404018971576 8.56488084016415 1.2473605285865843 0.625645044178458 -0.7405149914461763 0.7596000331020853
P 6.180753598828348 7.740610008547176 5.7614236798635945 0.8232788022079692 -0.6474143175347495 0.6223985122167023
P 4.815369087929383 1.0566294463551271 12.417001846061225 -0.5064972954709922 -0.363223086028968 0.3010769515175266
P 4.01777064878682 6.138541874110043 8.26335458991111 -0.5715739733656673 -0.7492012063662646 -0.2537288012508663
P 4.728814736453518 0.9417684088916921 3.6958861577375512 -0.3325025170166596 -0.012719247338881322 0.24579283423324122
P 0.21605992291162596 5.473574028419284 3.5430119949128187 0.13149264342606387 0.952310128577734 -0.05814806909564179
Ni 1.556307916068711 1.1171615110634732 2.5950450086908345 -0.45039376760920496 0.10095847939294872 0.2570432103360799
Ni 1.7014169273944613 6.449274343512344 4.867745034790019 0.6372885419546572 0.1580994473803148 -0.2498124969155956
Ni 5.92233658033896 5.674140668241255 9.287890484536023 0.31972259164317196 -0.33152806891853226 0.3373377336217738
Ni 8.720779800375114 2.194467930596123 10.123104762219006 -0.06382532198607717 0.5885196000810703 0.31353754587838256
Ni 2.282855218995586 5.233450262182149 7.083183389056359 -0.3644821552470497 -0.18917817106299034 -0.21676945041769763
Ni 0.496762926203094 9.222471791930877 9.090534644566421 0.14820738507758344 -0.8163273105908005 -0.11518413607402743
Ni 1.5118027628844275 1.1132879645599112 11.710622266841476 0.12261051044508563 -0.08715654051284989 -2.019419756196567
Ni 4.095972947778315 6.831401060475635 1.6279956141223975 0.43539472309721144 0.965160502177841 -0.2037226445360685
Ni 5.52403848391674 7.885366879281693 8.006648613525275 -0.5242700460733809 0.30020354777363784 -0.29457668850516366
Ni 5.2648359210315245 2.761856715531647 4.805712309408264 0.14330352001806287 0.26031236800565494 0.03666058864582719
Ni 0.6751429029282047 7.392379080801534 7.077619567714878 0.036960122164116996 -0.013582109559808868 -0.3349728329340231
Ni 5.169676698185274 4.425513336450824 7.266346157350086 -0.673822118104317 0.2252155243025218 -0.37489203772646407
Ni 8.158673124308084 7.311395774063891 9.184176954096593 0.2024998278725609 -0.9357216280914337 -0.25129113834365113
Ni 4.577204668058852 0.5618990034106622 10.177538474226871 0.2722978225023053 -0.7780384423129311 0.6898002387001281
Ni 8.100913038099957 7.20059789726853 4.76378049131376 -0.17260638274723822 -0.17337180015835302 -0.07748276486851172
Ni 7.128174315671625 6.146758487905478 7.107881988370679 0.2545502687108971 0.04412732933651755 -0.5949005639067497
Ni 2.420298400527573 5.225179472911139 2.469844581714045 -0.46278777039818364 -0.30189996163945426 1.4848303304750492
Ni 2.337048753061739 5.216330811900671 11.316121871257014 0.2683876888146216 -0.467243235066376 0.23183251539840719
Ni 0.9705717034053591 3.299123936047863 3.85873673438929 0.0664424478939501 0.4608812974040901 -1.005485427049133
Ni 3.8512894123470103 2.694110283325991 2.5876843674094734 -1.3905497773229083 -1.2596574864850048 0.15789273068614745
Ni 1.1035002619728218 3.196958018360671 8.193260553763901 -1.0476911138829053 0.4213133053034808 -0.14498810680933738
Ni 3.283873539673699 2.7307058170764273 7.20765696173586 0.7839229261181659 0.43452183357395485 -0.8780561550591652
Ni 4.013860985299542 6.859283371904539 6.085540200506525 0.31596363882137196 0.03877120723092677 -0.3775700987792594
Ni 0.9092450650552567 7.4000358813493685 11.513081327330331 -0.4197989255414835 -0.00027999313426403395 -0.009506911049170725
P 0.15468452663350676 5.507397583669503 8.110401872646793 0.16303699389124826 0.6651603286642609 -0.7395618835042875
P 8.301127537330693 1.6800356730344728 7.925824221515985 0.6744301840019611 0.7045845960981544 -0.38901099362634944
P 1.7364865185828884 3.18500329675061 10.368617182426597 0.3699956288661112 -0.2656242671368716 0.10216921187159823
P 4.035323502872892 6.09431662754956 3.817267213686353 -0.4760598049167413 0.47305058577677245 -0.36584586836379573
P 6.972230209231015 3.919722067243274 10.447419926272374 -0.27679673881392325 0.6438685091650201 -0.6529285624847594
P 6.253303589868259 7.823931889980442 10.121069570186597 0.17703819326634673 -0.8325519999797791 0.7216806323484926
P 2.3739241934359767 8.42642638308811 5.891395160389294 0.06823244991483732 0.1389858664793155 -0.7368845937824406
P 6.91729627699868 3.9621143768801605 1.5879536172008428 0.30421935380125026 -0.04846992257592943 0.2002611683500293
Ni 5.443335083802898 2.60940692726558 0.5809461976979915 -0.3115860785789666 0.8003679590480668 -0.6665291839873295
Ni 1.1651429239304407 1.0318170785421 6.731420220303273 0.7766893844842043 0.4590365308858675 1.6247808748604793
Ni 6.843428016053129 0.6270477215625311 9.135439793345363 -0.060086937989567483 0.5225057550841065 0.18138412893986827
Ni 2.591339406161553 1.4127067888131122 9.123043541609372 -0.25328811416902186 0.3839050398583517 0.7101659468406737
Ni 6.513607720756819 1.7636916365671138 2.591384552391198 -0.14954024495639406 0.2929874896411728 0.20753353364172647
Ni 4.120324824048961 6.97818048229826 10.36148136936887 -0.1493129594369364 0.2220435543324434 0.12672350417219466
Ni 8.1641177596033 7.305075301913558 0.07560729371148657 -0.12810470079043745 -1.3322081041592218 0.8266207220970087
Ni 7.633496064090865 3.9764437901695615 8.192296230298677 0.02923601404698191 -0.713195991916249 -0.11399165842782305
Ni 3.1854818467848496 8.393243904298854 12.273788976380578 0.4034333396992665 -0.15988147898140206 0.7062144183920934
Ni -0.002241058839590017 4.7281826892384835 10.173746190936672 0.5020341174933161 -0.03641504829392438 0.4148765485392016
Ni 8.562181095631365 2.436632306413223 5.70594618702633 -0.36052034238582426 0.23550713603651696 0.49078039895636766
Ni 3.5665069957447977 2.6891080810812973 11.484510084437039 0.03348296224879395 -0.27811005830870816 0.042528360280513856
Ni 1.0581012134415622 3.3658049172338917 12.659051550455027 0.1700663899342039 0.4787489217131304 0.03491995180563663
Ni 2.973908556175368 8.258365028610717 8.017525243171407 0.5289839066092825 0.20173132513765257 -0.10798350456053017
Ni 5.816667315231296 7.844328956534165 3.5590289742663592 -1.3735830675615828 0.41446105826833785 -0.3280902468815769
Ni 2.987244752412574 8.100651189968014 3.6241804011920067 0.8670916856278614 0.902777054844613 0.06947120741794488
Ni 3.492620676307388 4.0671425655268605 9.346433406366199 -0.2945044405063315 1.094654112896005 -0.37210676167184303
Ni 7.336804072108236 6.082668900301087 11.364806662381854 -0.24067608183196615 0.2712632105902038 -0.4267717573148908
Ni 0.5136900535462826 9.097507028272835 0.44277345309493704 0.16985915901940424 0.5730618707651034 0.274516684530495
Ni 4.632129571045258 0.40895712124146194 1.477421200235794 0.19811609698256846 -1.1810781461182047 0.07434241946731712
Ni 5.995879788431065 5.63135107178349 0.36066419938994215 0.2416127347136226 0.6864012403209082 0.3637365353302767
Ni 7.991144495340504 8.763036671323064 11.222940956193819 0.06806661376093438 0.749849895693857 0.2047652268679699
Ni -0.06735998047989301 5.038635252016983 5.72636402084569 -0.19195676224939198 -0.9581308490245691 0.788213840184036
Ni 7.921185897882231 8.637485006679634 2.4353257745272896 0.5045157462645893 0.31284977578273865 0.7863819291816199
P 8.500375907247022 1.5266649016836427 3.605638844676704 0.03391156514578031 -0.055320884059491815 -0.147090754974637
P 1.7763416101137117 3.361813990533252 1.6255107656427232 0.5577378388135233 -1.1538095402102386 -0.17599252561065176
P 4.5800398512805724 1.2336568420400662 8.032180612238847 -0.869418019768193 -1.5734894236753547 1.0089736427080496
P 8.590560015586366 1.7555382274931821 12.384426132598403 -0.987470992749583 -0.9654980880229177 0.8940851834975698
P 6.286458980919727 7.657071425211612 1.2935406068907065 0.12481394585430763 -0.17509598193831133 0.7736981630663643
P 1.6488305991036785 3.3933350880715625 5.960352414474035 0.26580167325500026 -0.36529642361822895 -0.513542889463864
P 6.874073276736322 3.947730788115185 5.9632065591122085 -0.33386443036119273 0.6067356088684648 0.11506689376987281
P 2.2392439611582784 8.382119873314265 10.218267596763626 0.8848767775254244 1.1511456202248302 -0.6310245633228165
