# total energy = -340894.75876968127 ev
CRYSTAL
PRIMVEC
9.03887470374323 0.00000000000000 0.00000000000000

0.00000000000000 9.03887470374323 0.00000000000000

0.00000000000000 0.00000000000000 13.22930679239067

PRIMCOORD
 96 1
Ni 6.333874037027958 1.891185704507234 11.362586069102807 0.13721746172498306 0.32133441621498204 0.7512282640986223
Ni 4.556487766725257 0.36529166435913285 5.909623599878568 0.2802188771215948 -0.7279430683184367 0.4589519415918612
Ni 2.795118382634664 1.4956174249923024 4.67683767352455 -1.463151817060351 0.36419701990646314 0.5093247376174582
Ni 3.3828531411955347 4.327008812349984 4.92999396053674 -0.06509081896206209 0.34013483675093675 -0.4071817509981052
Ni 5.317452561547437 4.696093188590946 2.6138862304796877 -0.5749182072475518 0.24251519192323395 0.2903271692001903
Ni 7.073272076487785 6.303575728572549 2.7463382867989528 1.0286448958847318 -0.36650329944213655 -0.6648988474727581
Ni 4.692830154774596 4.551914096057465 11.15763681326163 0.8622410424037794 0.8434843306215667 0.7581841265911652
Ni 5.834141763885302 7.799681252806079 12.623100551795925 -1.336631430037898 1.126301307487641 -0.14195677618218133
Ni 2.106536897511444 6.610933628548001 0.26878902104370167 -0.6748068506150895 -0.05506480218462775 1.4899010601297373
Ni 2.6691074285246246 1.401712554305178 0.2879649940115267 0.14635310547766409 0.45357962153635434 0.1582539706803081
Ni 0.4453200543956774 -0.08775843579760231 4.655062120153451 0.8257383194920555 0.01963088685705006 1.4129399720926505
Ni 8.807777924561233 2.473750226661036 1.3159851536835694 -0.6917319085052023 0.2272551804403699 1.4867424598960974
Ni 6.789153123719629 0.7795776458876265 4.802476225991283 0.38812576280791866 -0.12335664458249078 -0.550781204990032
Ni 0.9522725807585535 7.153781334665687 2.5271283981266004 -0.14278955649612182 1.1412270755595377 -0.9319698743584852
Ni 7.449461008351046 3.9183522420703056 3.752095697746153 0.7786436799970977 -0.34156437010861174 -0.23221432421785815
Ni 7.9275180596333 4.00302842154831 12.620256017884552 -1.0399099272755896 -0.22364509449160838 -0.32507794241781435
Ni 7.845779514477494 8.892463142914073 7.004745654682001 0.3865519905628956 -0.3100560150876854 -0.49246807107143575
Ni 6.898225226384132 0.8180615593959044 0.4496234627058266 0.035662229288299874 -0.42285082499392984 -0.1814751459917778
Ni 1.821242891014408 6.466094698151383 8.916036528490357 0.26308478854446943 0.4679700859300715 1.7086638868283799
Ni 0.14785610681738787 4.995334178962294 1.4544959678064324 -0.36724583403511596 -0.6862153495623472 -0.30433839587761774
Ni 6.566769686091819 2.085042453147792 6.917684116134372 -0.6695849400945179 -0.2924575852796318 0.7701780657282478
Ni 3.3075683526737274 4.386285753534522 0.3794664278793512 0.7623652545520483 -0.8182535810792358 -1.1317983260464703
Ni 6.045326035589411 5.630278980799597 4.795980890533032 -1.5541665549770267 0.6596553396856316 0.5496486340474857
Ni 5.603243706160537 2.9011805399782693 9.19401085414396 -1.29696239358305 -0.30344236642590966 -0.226679510442558
P 0.2579261012639552 5.768492415940305 12.60807161460356 -0.05144674581606623 -0.814098935480914 -0.3194953061237143
P 4.1277739331810945 6.189306272876465 12.7154281388239 -0.5011396307035045 0.3217591624572265 -1.3657332324998608
P 2.4086974444553153 8.560040443014143 1.4249686753746653 0.2671823556526108 -0.8926458799478821 -0.648543031822554
P 6.211243622107155 7.890666566920681 5.760357428586526 0.3652002643599968 -0.6561383276713086 1.0994664466829838
P 4.714821737254312 0.8960507792691017 12.57432407151015 0.3419361516257337 -0.19085761564794226 -0.12091923878559174
P 4.040250508129268 6.110921150285383 8.291229728670832 -0.4508794489963719 -0.13646489982967464 -1.1669656179762227
P 4.6421401446857145 1.0399948610568055 3.7091004818064626 0.5484700403583522 0.7193530126565806 0.18948541789076398
P 0.09167769192715636 5.521631705252457 3.571092229124566 -0.9037599875831726 0.017771207940491973 0.16045329232447206
Ni 1.2997178906384623 0.941977302318604 2.6453189177272063 0.6971368815708574 1.3859253911770195 -0.08859147318716355
Ni 1.7181454846175133 6.437866292033769 4.663198011394714 1.0691438844400425 -0.3049714014759264 0.7449195482717752
Ni 6.032906621562641 5.547970986529026 9.148264204703723 -0.16183294628081807 0.16924132292974722 0.7298168883023817
Ni 8.515063001822583 2.3576820348722825 10.369951296644738 0.9695151796021111 0.3639265398538958 0.1054126585095604
Ni 2.2712342359261224 5.28319522591319 6.9991108201082834 -0.011979540959379368 -0.9253102029501227 -1.0394031628425002
Ni 0.47121823858017536 9.213867454387051 9.171521229660696 0.4424675707835928 -0.23395753216120999 0.2456056579230996
Ni 1.5842164761497954 1.033125316180281 11.342715006659978 -0.8762352998003425 0.36389928616038614 -0.31787525402178807
Ni 4.242820732113207 7.055655309429435 1.6837597969605724 0.04640249852393944 -1.1091065408759093 -0.8382909593460853
Ni 5.665937342033662 7.869741571671792 8.110861692950325 -0.40877866317157985 -0.05709520235109521 -0.20379360698332002
Ni 5.260598038819358 2.7393666026367636 4.970647204006026 -0.26786961152762256 0.7376189008453039 -0.5784951259655327
Ni 0.7056423613790624 7.3210366746593865 6.7680609092862465 -0.7160275478277732 0.20385299946634572 0.7262695372707557
Ni 4.8827730706105035 4.521941187096208 6.9699794303944 0.5799136035796142 0.11009026649088784 0.2980628472815512
Ni 8.377699220916602 7.0546791109469815 9.220602320028497 -1.0945183586490892 1.2348620247078799 0.4433111497308107
Ni 4.733559324792517 0.097642445432444 10.504493140826439 0.27557212237820283 0.35047401389341576 -0.8174503684516502
Ni 8.045457298513423 7.007351562297662 4.882963790869575 0.37737160961520816 1.1533793946513555 -0.4992192737523402
Ni 7.206134497724674 6.316989418831447 7.0620955077511764 -0.1387920053009545 -0.9583787033693172 0.003930445402657747
Ni 2.4534669915256133 5.050896142588606 2.427908669035007 0.18333379646707137 0.8413991659577639 1.2665788961951863
Ni 2.1413636822604563 5.3596731459135505 11.341405273696019 0.7753323562356776 -0.4450337888488723 0.23679423027905672
Ni 1.0561382915166386 3.599885564919526 3.876795111117267 0.042647659467197514 -1.0608875579685213 -0.6263001612639537
Ni 3.8824679089653023 2.967028743169693 2.739578112307962 -1.1590988136336362 -1.325924070922723 0.149747990091826
Ni 1.2886633467121602 3.269794894727679 8.191136844269932 -1.264918477773628 0.6505448927439311 0.510243906997618
Ni 3.697279441293938 2.3984925547637412 6.941840509137678 -0.4080901217449875 0.3761421080834812 0.4232328909236969
Ni 3.984670466753281 6.8682342396732 5.927840548226131 0.39379041729286374 0.16531293440961853 0.1230645672633687
Ni 0.7718909867257888 7.407484473605546 11.391782538715521 -0.04310685849180318 0.7752346543155487 -0.709942517975958
P 0.06309315414094382 5.467064017858274 8.03704210603968 1.0023142284100028 -0.31039154405023317 -0.2898790259191782
P 8.509956037539377 1.8204203534041925 7.946051368600177 0.08861949821162157 -0.774789082137698 0.702110680636365
P 1.8845240537519727 3.312919366577546 10.562093370728617 -0.6578486254941961 -0.7670343778929435 -0.6831500803734623
P 3.9475026134213476 6.213033319324987 3.7538555666770206 -0.18519784625900362 -1.4256363366133964 0.22252949282992643
P 6.827233903410153 3.9896599256635987 10.675600849275895 0.21866538188882986 0.34327158260770557 -0.5345446885265116
P 6.3456336131915885 7.540455361340486 10.228688145133846 0.08469882300097671 0.971160685625334 -0.1047050909195745
P 2.260667791241047 8.40979626546468 5.827059805450096 0.878711786365293 0.8800464460163165 -0.48362219064503154
P 6.79720676119987 3.811973724107387 1.2717940946028734 0.6288231847961235 -0.525659727332056 0.8424078097279363
Ni 5.041658412504648 2.6499088583697055 0.57951751744607 -0.052159198502058565 0.6786645337982827 -0.7063242044970803
Ni 1.36459893422227 1.1456502690327222 7.122367629055326 0.7490747080907293 -0.8687251074662263 -1.5599960171746103
Ni 7.065986743368734 0.636884544377437 9.18678788926129 -1.2864915759587134 0.1866050110191754 -0.14139601858270487
Ni 2.8800657283577937 1.4925080520481913 9.17222264634809 -0.09251934748666002 0.016275854341888097 0.18601674261587317
Ni 6.374802062292305 2.0168802979979596 2.531652354982785 0.70164479674354 -0.2895013308647853 0.6888772126652265
Ni 3.9791748308520614 6.848592764651242 10.390231820117709 0.6495755868521265 -0.5338432915841129 -0.09179223951264835
Ni 8.081974352857054 7.234272515093913 0.571491900477825 -0.30194649860667355 -0.26760298812979716 -0.12413208929593461
Ni 7.671392502236981 3.809488033527065 8.34402850825931 0.3890130505088784 0.5560915614593519 -0.3873811713324103
Ni 2.9955554321569453 8.32052833756921 12.196190877669332 1.2653640499514789 0.09850976074214002 0.23781804355788075
Ni -0.03525793907876273 4.921983709655718 10.290336887075751 -0.010124232918195468 -0.8730633298302642 0.05276057953148333
Ni 8.737148156580753 2.3426413471426284 5.586153905505214 -0.3273813937400104 0.22018927473252403 0.6441932394942905
Ni 3.8138538100735935 2.4363564014581645 11.256857446240707 -0.30924303226808675 -0.41084737277515054 0.3713973943096442
Ni 1.0894284675432704 3.2145673694703563 12.644055375331776 1.6776728377635042 0.7971180846522014 -0.30328758601560024
Ni 3.251093462688825 8.42639163966639 7.894125744321004 -0.7275376053499018 -0.6212595135162527 0.11421380174095815
Ni 5.431532200871934 7.972468384200349 3.687973919648698 0.4263909769367044 -0.010560549124665683 0.7002499732785424
Ni 3.0639706758022283 8.214339635977879 3.515993055889936 -0.9251716204897292 1.0587990508706087 0.8156644801958209
Ni 3.2834074402330033 4.139379848472486 9.144864683877328 1.061622893472649 0.4400538191357776 -0.11468097118536379
Ni 7.278653390546197 6.231680518114817 11.580379566088117 0.6568358679589655 -1.193883782523305 -0.1522630432041958
Ni 0.4756933855122376 9.06156241337463 0.505194465206976 0.30770705523953457 -0.2964304538844508 -0.6514890018247554
Ni 4.496388287930504 0.4079090553306145 1.60889531611871 0.656278709903915 0.07533846483199928 -0.11259092142555449
Ni 5.982252766973109 5.594855630311307 0.43545864194792955 0.16135600664439953 -0.02759719289197828 -0.24729075893500635
Ni 7.973643437929227 8.895138649865983 11.237488945238843 -0.1923560545703397 0.1471825433574949 1.0948415463164627
Ni -0.10544118664226698 5.022830436218067 5.8169787483437965 0.19488961962547083 -1.4569917109962263 0.3363432309189885
Ni 8.143610440374188 8.682155642069207 2.774741143200931 -1.0043356297154058 0.15950378392700917 -0.7690735198101594
P 8.467129848559148 1.6742617472812933 3.542081056446022 -0.6022639462503563 0.451575446622132 -0.17077035797976395
P 1.9816106083819085 3.0655072845246085 1.5929670108800105 -0.541921440606557 -0.07926376802833446 0.4227366680135687
P 4.881245500762959 0.9043213497454439 8.271399341164768 0.3010684668770944 1.235788650287207 -0.3447584515658772
P 8.683520512169675 1.6312999751785018 12.549320735934566 -1.0068676521086402 -0.9013251528894348 -1.4084510830833614
P 6.33866464069185 8.058789638898784 1.7338062391610218 0.19075502863180696 0.00990311804632488 -1.8040559278771446
P 1.7198267153372941 3.2092977054400746 5.979196723390539 1.05369515398514 0.08094424105455093 0.13781730009251103
P 6.833778048792526 4.048936866848137 5.989700799839236 0.48932901122182176 -0.24833385548754006 0.25096589379374845
P 2.379474762105573 8.33239638023089 10.017932316097037 -0.5455402683060669 1.109869901404495 0.49580793407794616
