# total energy = -340852.42276504805 ev
CRYSTAL
PRIMVEC
9.47700892122048 0.00000000000000 0.00000000000000

0.00000000000000 9.47700892122048 0.00000000000000

0.00000000000000 0.00000000000000 13.87056050694500

PRIMCOORD
 96 1
Ni 2.252438564508967 9.24863173919499 8.974682691959316 -0.4163780727853926 0.589516673887017 -2.329555732592569
Ni 4.291985605699736 1.613309098137026 5.138363036712169 -0.09296929053988504 -0.6115237742857275 0.28047547321709115
Ni 3.286569753276853 5.075430960474879 0.22032528893833683 0.02600156627008425 -0.7440785404277185 -0.5716850450222348
Ni 7.183127171189382 5.694554461492265 7.8157279262715305 0.20495523139158894 -0.3792999369861726 0.5155702043065379
Ni 8.03671186731415 4.290402945247718 12.510801038185546 1.7442872924589443 -1.3191348159150313 0.8084527929387303
Ni 0.35611281721715965 7.242197366383574 12.301522150581777 0.04709001150926729 -0.33878089382620363 1.0382258547049474
Ni 6.889700027983451 3.110866012076737 8.332932832683285 0.3641250290179471 0.6947958921425067 -0.4347925707368383
Ni 1.1488124709826968 1.8708089013812728 12.090093877406042 0.0888257006851567 -0.4931134179649185 -0.2862105759286555
Ni 7.096279863510965 0.6362588804383104 4.877193735701327 -0.6804679055556087 -1.5342577318682415 -3.979496394548127
Ni 0.4637830083996166 1.3284776018172055 3.849829131141471 -0.635958510289324 -0.8062611846040503 -0.05747109763327522
Ni 8.209487212827597 1.4709928585684102 12.209921175342085 0.5552610951382566 0.3292418439875168 0.6845230494615887
Ni 0.4989247043405092 8.835036125740004 10.563346828985722 -0.9523975460852177 1.0137268411223188 0.8112097868585773
Ni 7.105794780240464 6.349794842645231 3.0569607866211683 2.7371532309718534 1.5994046008792198 -0.6954715780532925
Ni 0.1203371610038202 5.102070831915738 8.441622750001294 -0.504041377731332 -0.3710274125647352 0.5892065988457659
Ni 3.720730475599382 2.153517547753476 12.372747557127814 -0.41777032514722895 0.5245212428522386 -0.5337630731654808
Ni 7.626897580328357 9.075031893925102 13.638644679730305 2.2522945968165597 -2.228364568363524 -1.8838164330362395
Ni 4.399644424471759 9.055821997300903 1.1862675047459708 0.5564921393318804 -2.3965609949685245 0.17700014093955968
Ni 4.959223879860218 0.265833884690384 10.718545166473072 -0.31402194171396886 0.6722159499594617 -0.2447937035447655
Ni 1.2805144608132255 5.858506711910927 6.153826413753196 0.06628895303522132 -0.4102236231482225 -0.6875466667792611
Ni 4.887748280284637 7.518016227434716 5.09039894800732 0.41529563835449124 0.0886351819409054 1.1114272185892857
Ni 5.311730695269037 5.710257864899417 3.8553911875444022 -2.0714167180891487 -0.5661278626494314 -1.3443326553368977
Ni 4.960474845007921 7.785229964591051 11.812100042859461 0.6211137319670077 -2.3128013959523654 0.4770203690577979
Ni 4.13493261761083 3.842254158091781 4.353733055850187 -0.6858682506355737 -0.018660552523980762 0.868778072191349
Ni 4.4743706380296295 3.9613043413148583 7.4324284142118255 0.5424060935524594 -1.1317183647381541 -0.5124475995171561
P 5.548854929819634 1.8431549900100788 6.889271667190449 -1.3171571233633703 0.54713795181049 1.1759829909834845
P 0.5773990748371411 5.08794061195191 13.601193436770508 -1.6742537847796264 3.294289688755952 3.0952739627772496
P 4.527887306128715 1.4755607767592656 0.4796380439458838 -1.0310115963446953 1.597421766121236 0.40749928223852405
P 6.958891668463603 6.63129043190451 13.524559501362392 0.8645218680181563 0.7962817047938351 -1.590837685145815
P 1.340589218929058 9.132614198754222 13.059215629630755 -0.5643260335540022 -0.6677193476406887 -0.41399157483108706
P 8.628105640890785 3.262166455887948 10.341223751497997 0.39883877835004855 0.10200106172485013 0.49832607251410954
P 6.918443795354537 7.4575529119623996 6.386075675031229 -0.2690204373026141 0.17165944545293663 -0.2466857783611558
P 3.435917933296951 5.31517084942522 6.0056609644181975 0.2035023009951463 -0.27537363321415154 -0.36897644357297743
Ni 8.112035132419788 8.324310650172828 9.275812747832317 -0.8947163893236655 0.7076763476496005 -0.9953213420319373
Ni 5.332447436275695 0.2452052798645862 3.4936471317608397 -2.0678439131362256 -0.36715507409352255 -1.132334143945282
Ni 4.0059884373104655 1.6504684492290245 9.138050210941515 0.43095982725430937 1.3548991179988343 -1.3055848451447385
Ni 6.599599314829365 2.439107204768874 10.77883979119062 -1.109553655715657 0.8869123198982145 -0.5619446778060193
Ni 5.173262121230477 4.737585077516792 9.565512583518617 -0.4036876218019177 -0.2530726557241061 -0.7868694103409997
Ni 7.464670145492134 0.6947396056916907 1.5718538190037106 -0.3237353123469908 1.6296130061418 1.515505905182035
Ni 3.1034455142687714 4.571481546124429 10.85159099613651 1.419523281737123 -0.10736823957403445 0.18858218935020424
Ni 9.068085246551872 3.702591480957687 4.794691636509438 -0.1265520115913369 -0.2514207219429799 -1.6241237008924547
Ni 0.1262811408571488 2.007419981715667 6.6183239886083935 2.8191169144298547 0.3009190857834237 -0.032028489190454514
Ni 2.7974329035162513 0.11658237015897198 2.5220841020963674 -2.284326171330808 -0.6186624422130377 1.788716726416913
Ni 0.5956878062162124 1.010031155657212 0.738027738306565 -0.6740725435522262 -0.6430120747019958 0.17633808187552857
Ni 5.899276803315614 5.393204539017547 6.071601990916062 -0.884658233756715 -0.22072329285912312 -1.5753894689115449
Ni 0.9754969359736508 2.6380959563319175 9.254660064425702 1.1873441816325745 0.608059984106843 -0.015426618967715366
Ni 5.737494787888043 7.420279836766064 9.549741893349731 -0.713403737051681 -0.33717549701229677 -0.7562298310782718
Ni 6.207829252398319 3.0905283514178676 0.049531585942955966 -0.9795640791976807 -0.14741934195864934 -0.07879788413550945
Ni 7.447128202398207 7.608578522521462 11.279331045068368 0.06516846627753292 -0.6331506085268838 3.047686442806274
Ni 4.339721298495043 6.540652320748205 7.6637479809369085 -0.05369800374408816 0.14099724048238943 0.1706831975825964
Ni 6.217581094345188 0.7341014136043422 8.644493284325696 0.9510924541205491 -0.12260099736338885 1.3656324452559385
Ni 8.696264287423213 7.2011713957441295 0.8554990518811018 1.0182604673266142 0.2944062243655704 0.6657766220920212
Ni 8.53064408347428 6.093204832235677 5.530788908144888 -0.9012153667844478 -1.664106154822663 -0.6751734899258888
Ni 2.6021117543180643 2.393295344738596 2.07706083240795 2.080025542804082 -0.4708821173705439 0.1578575065728378
Ni 1.3139019624447255 8.880146687126873 5.124519970111791 -1.7992847317407463 0.6992845240414796 -0.28482809375883206
Ni 6.541941193930686 5.304433398574101 11.25884459537299 -0.7942564468336902 1.132024326014347 0.8904450156418212
Ni 5.594344571554292 5.8477503070424195 1.0668031762429342 0.9337753029983403 -1.2876514005947695 0.3899677011126639
P 0.5591122388598087 8.637639511637673 2.493774381723499 0.38500470068043374 -0.18588381658243472 0.3574211346352103
P 0.2726421677366711 -0.06241178845995041 7.563228192814617 0.37238598347515867 0.09198635780132546 0.6369728104864514
P 8.348458068326975 2.7331503535399624 0.3710665892365589 0.9344592164392422 -0.5204861535509165 0.19982485214355908
P 5.003727912690624 3.695625879567068 11.708347647071403 0.8381894007712145 0.8756938254745756 -0.9698129133481878
P 3.595766638950799 6.206644626311481 12.36203948500365 -0.28773446877234965 0.6088608827415837 -0.601433479929261
P 8.655882753375009 3.9706960569313265 6.812373323239749 -1.0966454322944208 0.7352187760442435 0.5414612131406868
P 2.4080415702675806 1.3617324253269794 10.408662145369627 -0.3409061676993226 0.19659143280792596 0.7090174350585273
P 7.881810160198945 6.100767485174064 9.720904251983336 0.7367259567173892 0.8604284146750731 0.7557127822325372
Ni 2.334206195527014 4.755051204541163 2.3115153936092456 0.12855798627777215 0.7422384018951861 -0.0843992894826869
Ni 1.3960202427844774 3.2765999401300068 0.2073332577187447 1.0353906992489976 -0.23972708765513553 -0.8239987110931293
Ni 2.1127948413922626 7.145095935297469 0.37423475324320393 -0.3594224813359552 0.5835810251288723 -0.0864767408370059
Ni 0.2714660709576563 5.857331562832782 2.930460726863171 -0.25521464176777336 0.3178307739370978 0.6375088854955794
Ni 1.8450503917490229 4.319753241175267 4.470315426009158 -0.601665393434409 -0.5931126187683915 0.3825611242359476
Ni 7.629162585406395 1.2708952969880845 6.637382253093476 0.629917960522199 -0.9610809327918287 5.856522801245727
Ni 2.3044199571995083 6.957877628533268 3.9851920894307704 0.6426384934126609 -0.4219720219334023 -0.6506487653116472
Ni 2.5217277665694464 4.963734935998904 8.528064441707578 0.5933350191918426 -1.0480832071150015 -0.25223781852763655
Ni 9.02107928342606 7.337678228982881 7.537664909561479 -0.4303841572564975 0.09065966857010192 -1.6806959408605442
Ni 5.064361814319445 9.021941691217279 7.115777861199482 0.3057350191148283 -0.26585309531822604 -0.9509806111330331
Ni 5.649699779340154 0.13231515229307728 13.181872762363042 0.6000653959371408 1.0132002791948873 -1.357476391807707
Ni 1.496315425800703 6.424757981420469 10.19300333551257 -2.3942333752766123 -0.825531602797888 0.8054206909806257
Ni 2.7355006516962534 2.3120015641552847 7.1039183325189095 -0.43813551906714215 -0.020021437427249388 -0.16383686408472428
Ni 8.61432607024866 1.1571522386340507 9.516300372768672 0.10393555974340166 0.58535174387605 -0.5278148260018457
Ni 6.713133878992115 2.945046790945215 5.398158171462278 -0.7260795327471367 1.6898009884856058 -0.724726618263668
Ni 8.561472792758206 8.206748357314822 4.627135279684174 0.10995476935428806 0.02575782569039435 -0.634164908724011
Ni 2.6442939200182645 8.351699205300571 11.018440368113149 -0.12944116021367386 -0.7093658195368815 1.3223078143263742
Ni 5.934133241294796 3.3712847339989582 3.048277951255065 1.147725795910004 0.17375592297064912 -0.7667566987515246
Ni 3.482971281466238 9.36300975713157 12.591417212647185 -0.7655045715119784 1.3716915069658246 3.6361142545044864
Ni 2.8423539247292253 8.287710442593818 6.6434854466928766 1.8086759431476593 0.9515827634934063 0.08752112294112024
Ni 0.410798948189174 2.94945359998826 2.2110230888121696 -2.535351457607582 1.5486499960341715 0.6152081651158502
Ni 8.118687992523482 4.956996782816959 1.2423856117317573 -0.16478714381313556 -1.1509170491537921 -0.7325515136247256
Ni 1.7171865904398558 7.064778286609714 7.899381482019827 -0.14933687069633633 -0.013721206240834432 2.31132738251
Ni 1.1459504143568913 4.6321249247619445 11.814665469113123 -1.018504207906304 -1.2461561095644602 -2.443763106575623
P 7.058826725149429 0.22017460450009077 10.765621259463225 0.417684707411958 -0.5283732696084772 0.44099355734122764
P 2.156190064205387 2.1193813624350932 4.908153227705239 -0.19462222489669706 0.7825458432649812 0.5928061432715661
P 7.68323839701847 2.1087671126970062 3.330182947289956 1.2301743894242234 0.6525593520707987 1.0827234228966902
P 3.847779254160803 6.5974669878730525 1.9030961223033156 -1.6009675744909653 1.1634311224604028 0.7847202252084807
P 7.081581023025453 8.685157233233001 3.120224558162774 0.42708517479025154 -1.8735613309671344 -0.42632232848229806
P 4.461434521161336 3.8334500170143864 1.583296359301716 -0.30959090252580873 -0.6776250367901749 0.3330797296763683
P 3.284390041277067 7.1240854070212745 9.599231780454431 3.4033420009006288 -1.0922277628426995 -3.3976567775903934
P 3.375956899285455 8.901716358916056 4.6845460506559204 0.9914492606710408 1.266070074879568 -1.703709113926266
