# total energy = -340865.6893910288 ev
CRYSTAL
PRIMVEC
9.27119744106533 0.00000000000000 0.00000000000000
0.00000000000000 9.27119744106533 0.00000000000000
0.00000000000000 0.00000000000000 13.56933460199834
PRIMCOORD
 96 1
Ni 5.219962266833485 6.914904031389482 6.8385649920752245 1.193157445880242 -1.968837158153009 0.757371915102515
Ni 9.206558602399733 3.6096758056511185 13.455081098166454 -0.39893956559397104 0.5797855626421821 0.2958100466916325
Ni 7.134761206310338 1.080984530955219 5.476976546656415 -0.1160742519884646 0.4908187083934708 -0.8986532624842265
Ni 3.149870771063962 8.423364931630811 9.852571928098275 -0.3851399407067173 -0.3518626667108262 0.7380549599414579
Ni 1.2083336983125974 3.8796994296525487 10.557186638263367 -1.7846788089021135 -3.657688381130836 4.173958696828192
Ni 6.609186297434215 0.5985698272915893 0.9984625301011647 0.05334550550067587 -0.7048375926492247 -0.4986978540312314
Ni 2.4821684061898335 1.5966021738338299 9.972700686927848 -0.7122590819242766 -0.2472015416553098 -1.8041454022671575
Ni 0.5919705889889552 3.2608933598164818 2.255820465975814 0.2054087739892398 -0.09622559269365363 1.04021408877957
Ni 8.604320162300679 9.117796158582061 12.927111439004337 2.681723075028007 0.3957575683215636 0.31843369762841933
Ni 0.7403023302807553 6.762457732695731 5.2009090290760485 -1.2112181600366947 -0.6078452969928757 -1.3615325641549518
Ni 5.334192689883153 0.18549719027152667 3.9470342820610496 2.202022073814253 0.39197830378478943 1.180560840162154
Ni 2.9529783520796404 3.9641785802757603 3.619253879675355 0.613098317861699 1.2195256514611255 -3.2796935361093325
Ni 7.805643591889445 3.1302343749906565 11.504936645757649 0.7942986129255352 -0.9876717959064796 -0.8615093064440776
Ni 6.7728878297601645 0.480601257454027 11.88186551975043 -1.4071485622218538 1.552519249181591 -0.8790390877977248
Ni 3.014279509226334 1.5625305234233489 6.000292064728446 1.1316669426749284 0.3297401237801741 -0.312266649585759
Ni 0.7029384776768699 1.464144576714227 12.040762717588567 0.7455561534145095 0.6037371883617731 -0.9423779570656866
Ni 7.273921879143351 5.649571011519433 4.299823739407907 -0.9646642792677128 0.4442729994234478 -0.38686900758268217
Ni 4.361820236358896 4.5695228715006655 12.432984431677154 -0.4825580110465754 -0.7232598039101543 0.736463447084622
Ni 8.772750005295839 6.335565448845229 2.679211018571883 1.6725267747861905 0.5666806498291079 1.116724205322167
Ni 3.2067495670553363 6.560095307250951 11.510351025033765 0.9145444797931862 1.1570509299656717 -0.599152397204568
Ni 4.835624779005869 1.9738750092498023 0.8199178107528543 -1.940332108734781 1.6007585438039529 -0.22339312638180234
Ni 5.706116044404745 4.261737660527293 1.8978066888993494 -2.0078611048246904 0.7181034565201956 1.0271014626570119
Ni 1.7514311702569674 5.241137681673631 1.4505891590094202 -0.7321398800086036 0.32758708199291325 1.3402638845841628
Ni 3.757263996912192 3.8804133118516253 5.781160824563276 1.791789966025598 0.3509761503408149 1.1453102444899759
P 2.4506834198513316 1.6437832973546291 2.938127748099366 -1.0036974819107747 0.5191712913942349 -0.35211334926905163
P 8.801249666074565 5.337196557837711 12.216756930534721 -0.4407086791109572 -1.2752586833573714 -1.6719739876065138
P 5.752370048186484 8.27673167370097 2.0549803711425714 -0.22345123331324743 -0.09381106971489006 -0.28893774505183145
P 7.156409452217407 5.615703327451546 8.325791141813108 -1.3759536246762885 0.6171544902089436 0.4251717598176226
P 3.0934926197316805 4.655995329562858 10.387108376372158 3.456434252739918 -0.20772919459230033 0.8752114865215184
P 9.286587578275451 1.3291930274965507 0.7262351424799872 -0.0499508779968301 0.8120587651224336 0.21398957367971533
P 8.032574690419334 4.700042788365632 1.550391744679827 -0.33697520807603254 -1.1782005674600933 0.2361995341178513
P 6.5252077914700966 8.301884432221687 6.0130473780984435 0.7116232481124906 1.2526373464134297 -0.5899573609688614
Ni 1.594571781605287 3.8519600070598523 5.307238537709441 -3.4773715171132173 -0.2845424441976132 1.8919766002495286
Ni 3.7623167994900726 9.127744153382181 2.4365364997530046 -1.39747118703309 2.209808402627891 -3.876832759538613
Ni 2.994550401179122 6.524002535809318 5.159902523017393 0.7385987482600699 -1.2868898398383968 0.9119980592222487
Ni 6.167701148890899 4.328156518633602 5.85385164770433 0.8079509136016473 0.004477833265695514 0.9386899666911381
Ni 6.980395769756731 3.418281206719427 8.22338334967594 1.632224475622718 3.885213527403142 1.7817708912266994
Ni 8.927866408838085 4.767481478184908 7.414433365436174 1.029131091492531 -1.354532735798351 -0.4298028308317307
Ni 2.144965685896065 9.292799280527158 0.5640624306037497 -1.1815954520742553 0.44285040804430825 -0.2584431760074001
Ni 3.9215681570685303 4.996684020075494 8.042694202371182 0.016188693944720507 -0.7461945583294568 0.7607614004000381
Ni 2.506737079274942 9.079774978083181 4.256619032447939 -2.175654896674634 0.4923670267171971 1.4304088183013752
Ni 2.1100225429308668 4.942002497865694 12.758037247790533 -1.8311651253891108 -0.7439211889142479 -0.32644216975519263
Ni 1.9970159179367575 7.292751681043673 2.921762230465466 -0.7863027392042523 -0.8042634374477311 -1.3356490115199708
Ni 4.01993556138287 6.968491552307191 0.8848263908042332 0.7752421105147165 -1.6244656576129055 0.5533132273832665
Ni 4.6397243781423425 0.35511838213137786 8.350486830302467 -0.13427431993625907 -0.18395420365988963 -0.13638699540388768
Ni 1.4279034661143442 3.377015107133835 8.277036696095122 1.0844116092323905 0.4427573341098697 0.2729819930535234
Ni 4.238031208799511 2.1692005958751115 3.9504534996587055 0.7851727393648672 0.179458115561749 0.6245752081530469
Ni 0.9461905920931831 7.552799496652811 12.14717288563926 0.425124451519455 0.36077256760594645 -1.4978668519440332
Ni 5.158994872792852 3.7375719736545427 10.154014712936734 -1.147027741401715 1.010848234022943 -0.7706514058202406
Ni 8.715722870146214 5.4601789912241125 10.069816479594458 -2.040007607650248 -0.551556649703476 -0.9137260976569489
Ni 7.96347645626714 6.584691793928231 6.489371832196183 -2.563480354633314 0.6156421673294753 -0.9857766357662957
Ni 4.583068090888343 0.8585629428361217 10.994485841184824 -0.36216224886462145 -0.36929988835066724 0.3650367421989391
Ni 6.466706535935367 4.942836905630849 12.050465025657838 1.5452849362166807 1.3049289567282945 -0.10501953683619977
Ni 8.348323859951238 0.6714368031830652 10.11390380454601 0.4584703739697523 -2.9049776189494168 0.6328857849012712
Ni 4.38890140393686 9.019076448766876 13.49810872525626 1.1791325923560596 0.5955813920238582 -1.5551476879433732
Ni 1.966022305059958 2.5251033213057346 0.2865096672014076 0.6698397364178013 0.08318958544530189 2.253850885560086
P 0.4159179674992398 7.6875656219226745 9.95462648761486 -0.5178093780497018 -1.4662104013810169 0.24986340475818902
P 1.9259058339508013 5.256277547012492 7.024002846683452 0.2765594259921366 0.9669715872446508 0.16867465179299984
P 3.5458436116167893 4.288030776327055 1.023681114123355 1.488620650755417 -1.196156894828198 -0.5422158319185243
P 0.2527977392496823 8.462192706302673 3.745230909818923 0.021225999258311833 0.8950899706130003 -0.09687531046251059
P 2.6440342414324416 0.10118862968030247 11.895489544315927 -0.021604979864285372 0.5434998408372704 -0.5024046134588573
P 8.639263305265878 2.832730921923467 5.8960522839868945 -0.9910972766482607 0.6959634300880465 -0.42689054228094225
P 4.891029454612137 5.4389386780022315 4.548684928245537 0.35993670196821237 -0.29182843633606514 -0.16170850488781183
P 3.5994125901397167 2.578143841577398 7.954642859393369 -0.16134006580479957 -0.4215025384961515 0.3381489166691596
Ni 5.567316948269968 2.434403197233426 7.108540405850223 -2.354873642532067 -2.0881895666721135 -1.4924001724025073
Ni 1.0785925620284422 9.183204456172792 8.71719791765106 0.018678807356425898 1.437584253003892 -0.934234759133262
Ni 6.702834662276738 6.498339861432118 1.6338835127809388 -0.3491519526478825 -0.543188994465071 -0.22219242120548183
Ni 5.402215465138037 6.783225214850691 9.58073763924646 0.23676697658554707 -0.1587825894902685 -0.07891024134365764
Ni 9.049003873943755 8.799098748279944 6.0045929731979495 0.6039521325860566 0.8220271891890552 -0.7243998310518684
Ni 7.859119858438467 8.475200196241696 8.01043970664926 -1.127280897792091 -0.1033910000938413 1.157113150662175
Ni 8.398091647544017 8.6142681571008 1.7481649274162565 1.4568186757534718 -1.9510281549960466 -0.936056128612717
Ni 0.675633874241793 1.4940720018911062 4.645109089586807 0.029373568066110703 -0.1594428487820867 -1.8783623519002037
Ni 7.296636312750337 8.214262345683059 3.7916796087458646 0.4308371856335161 -0.9024173575123492 1.2733447541641103
Ni 7.072106454344616 2.783055846304594 1.0275963407814084 2.417027747463308 0.3290274139838656 -0.938007853022449
Ni 8.403422586043616 1.3392522766653594 2.745538091824025 -0.44898634573871704 -0.02093495038045427 0.4931746102201571
Ni 0.6773054711313196 7.122421242583441 7.536109487110239 0.7086518241889925 -0.7032136838925567 1.2361817719605679
Ni 7.720181694342829 3.3337464289118715 3.6757293785802374 -0.6415537449889145 0.5037120194163712 0.7807108469387716
Ni 6.258883375227519 1.777983879583666 9.563178918508388 0.39692227805362607 -1.440189551837223 0.2575250350685048
Ni 6.8904466126730615 7.945861181224987 13.201781787137941 -2.819900072452782 -1.7969787093153893 2.9146552512484964
Ni 7.580919038338521 7.016201134079255 11.33120831345376 0.19746766476529218 1.1261768660946347 -1.1691489987807864
Ni 3.127721880497802 7.3209083075189465 7.600903104313974 -0.808426567686485 0.3042823458287018 0.6537402597527773
Ni 1.5140607034652553 5.581019778013285 9.430402392198548 1.959030970695865 4.90173104389672 -3.5754426476560424
Ni 2.9883572413221966 2.5621788396707723 11.935545752642046 1.4058745806054367 0.7806342280645653 -0.23573493577660692
Ni 8.01893675905775 1.542328584309216 7.653376227305332 0.5308590121448084 -0.3652887103087451 0.6563761547137277
Ni 8.954113168650892 6.5508704658472965 0.310662063523678 0.09489658946958496 0.25790555833637524 0.8924365921505534
Ni 4.382763871264277 7.405591424484751 3.5798206958138854 0.9740182096787869 -2.895979529215864 0.31864889896301896
Ni 0.9733088444607088 1.7526735107073086 6.890630182381396 -0.42854401872396514 -1.374417647647736 0.9609068691078096
Ni 4.174189743567791 8.632337720815094 5.669756262478264 0.5677196326165836 0.2556159909712501 2.238050942413352
P 1.9495103025072869 7.129105775902068 0.43259870584442 -0.5848732615777347 -0.15197610809139633 0.3175122142554145
P 6.4645092621537925 8.689772788649904 9.877702435745254 -0.7568150141577805 0.6892914173845096 -0.3405097035918523
P 5.714265426911089 2.591420196240747 11.892856524256995 -0.4029420018851448 -0.0438445079887761 0.891568330612987
P 5.20294961962172 7.053582601958182 12.306802508071252 -0.40867401927291547 -1.4493264811414848 -0.5677101195348868
P 2.0057771994708813 8.98843514139092 6.658825215383265 0.032365303704582966 -0.34161939171626327 -0.005142463432887918
P 6.079049959441915 1.8760824191736791 2.846235348042625 1.1488766216849955 1.2155646099308486 -0.40215447298684287
P 1.1347482046233492 5.212471139341874 3.6172995112654145 0.08807185323826767 0.14712880730142402 -0.08774352336457146
P 9.112474491279851 2.4535482198450294 9.762946335803537 0.7356167828136105 1.3905196954159214 -1.3774181250369568
