# total energy = -340864.2497601121 ev
CRYSTAL
PRIMVEC
9.33071633277628 0.00000000000000 0.00000000000000

0.00000000000000 9.33071633277628 0.00000000000000

0.00000000000000 0.00000000000000 13.65644651627969

PRIMCOORD
 96 1
Ni 3.4994477384163996 0.5634296913328798 8.423377642989228 1.0115288050297353 0.5785403773811714 0.36581938600123454
Ni 8.228114680907069 1.4139767129355365 12.980711177825574 -1.7674408477572723 -3.966343916326569 -3.644286248792317
Ni 1.129809755086442 4.282537415134281 12.589099158310944 -1.0043412861423606 -0.06529470744275208 0.346783452415706
Ni 5.854865710458818 2.3853415784722993 5.087695168424447 0.36930014546098333 0.16025608871200142 -0.6767102382853893
Ni 5.989778534085153 0.3272925944435035 1.2390985662470027 -0.5330521631413851 -1.9822827421349538 -1.578476849587617
Ni 1.7866548434051042 3.738267416175309 1.4391575163880845 0.20415124743305485 0.6509778665162917 -0.5094054702567227
Ni 5.959108470369836 1.0186062809887404 10.12831687428614 0.1302608279014918 -2.2590943933472123 -0.9058909178832464
Ni 8.220696761633057 0.7190641692028954 8.01182681630902 -0.5599235336109325 0.6058670902205824 -0.18222770788708614
Ni 7.490810827934564 8.277735428956369 3.1128229866400834 0.7046828122389155 1.2497998769646346 -0.9431014654952726
Ni 6.725262897424409 4.871968079862082 6.877263061385962 1.9452146336380631 -0.13836340240396816 -0.1765684527187798
Ni 3.3135705436269793 3.5177825954899005 12.888639403953574 1.6565458259769017 -1.3869047243711532 0.8649615266587362
Ni 5.551692083979331 7.159710368263735 10.25257681937771 0.8385187590861752 0.7690835471124884 -1.616522491506429
Ni 5.180049662993305 4.988154156340063 9.029669844723403 -0.5544591680622515 -0.0007939566562050844 -0.4211364134059844
Ni 4.143043209918588 7.388919408472667 3.8795372566587316 -0.41760860275838396 -1.1871225525400717 0.6182014434162192
Ni 4.285336629954664 8.517581485482753 11.509338431141321 1.4529537934814265 0.2204060187290204 0.7074228368778978
Ni 6.700461854115826 4.606154640518624 2.1752670377038914 1.0948081219753663 -0.28511785708510895 -3.9249386139069045
Ni 3.4054034511676385 1.3103497802850015 11.356769093499624 -2.186387966821422 -1.0117437492540189 1.1706438381587583
Ni 1.7981502856008054 5.498721608861639 3.605425078444449 2.8721425746972664 0.39998523324966595 0.5135583160828316
Ni 6.366076982389081 3.087869852659593 0.03127282797330569 -1.158154961663128 -0.045197422472244744 0.652689707001076
Ni 8.614863531207089 1.4478285508300206 5.642311065359552 -1.017930594791021 1.7490034669876908 -0.5584631470153221
Ni 1.3888770867127795 0.7760449860865877 6.660439613685614 -0.15249264271649868 -1.468290423838497 1.2175646710800128
Ni 8.338366421965839 0.9776164453022826 10.376427146033896 0.5589434290858502 0.6511426742289302 0.3062736652271177
Ni 0.6273366987538036 9.252795258056038 11.827096899906605 1.1457733001693235 0.46686065491597656 0.11408498947257771
Ni 3.7415051746508836 9.249809428914297 0.12029159154787473 -1.4784431960017828 0.7929531546412344 -0.24578332115154444
P 1.7085474192003833 8.022689635955315 7.5405024894259824 1.5130577007518586 0.4527530118700009 0.5894739935745396
P 2.979633546271496 2.1607512427169984 7.062048562395434 0.9741807033985804 0.937239864508173 0.5273178317607693
P 0.8318184083110888 2.5976433611661247 4.1418227522569016 -0.295065198105808 0.31797861236887176 -0.05747932516339133
P 7.988529884430588 0.9013667666666886 1.3928752985478916 1.4181719099155512 0.4199912440579476 1.2164099886502793
P 0.2210838526569697 5.167014652646394 1.0048266794996075 0.40065860516760676 -0.7481429403050792 -0.8141177045339915
P 1.0127839141623463 5.2950414078145895 5.603089400367969 -0.9344263063187778 -0.7361520864917902 1.1143773023565453
P 6.483298768350604 0.27382012680135637 4.679941010112282 -0.0626241025891244 0.21436701162379213 0.7770542240227907
P 3.297139152631338 5.932236008094171 2.127947244236944 1.2534912097732929 -1.0540221983072557 1.5006840096778542
Ni 0.04753439993651047 3.9219518926887638 8.798998681306625 -0.10691546830733199 -0.20491717906480192 0.6014725606973125
Ni 8.360489549762924 3.0797241375322817 2.9049169042858645 1.5233683386492474 -0.9796101019442677 0.33235236459204054
Ni 2.7525985629063943 2.2767880277378927 2.898129741418045 0.39478491999564913 -1.3328251689179305 -0.35722675923621705
Ni 6.3583324880526915 6.361784852997829 3.607991958434739 -0.6791458443100754 0.32813498407658326 0.003493357865239145
Ni 2.864501840709192 4.62736335814105 7.025162375635656 0.37500362360366385 -0.9954033602227824 -0.5985258193641628
Ni 1.1612356068032619 5.668969854237261 10.72166177440444 -0.6301953825533018 -0.023165125262553654 -1.3114449034699414
Ni 6.767251119730136 6.977108254814161 7.8935758523652035 -0.48545153054428664 0.0599576115005548 1.3118735063669278
Ni 7.9986817035125055 6.175105216626565 11.85313986152383 2.9767563914546153 1.3947931259802948 -2.607794860279973
Ni 1.13566011406104 1.2477406754691283 1.6429114300920704 -1.769513671125901 0.008281266172185737 1.5686040705585953
Ni 8.201848715175819 3.9106057419501496 5.165577722371931 0.025753969035652424 0.2962841581145736 0.056082187705548577
Ni 2.3766453510969803 8.699689070980725 2.670518119799945 0.6450095647479988 0.41439292403456374 -0.46560878478674644
Ni 1.0650172627106709 7.061849818143187 12.703116776374735 0.5570642097852664 -0.7360901229056033 -0.5988644336505041
Ni 3.236284222436237 2.744788753557529 4.958518869036681 0.1066763557133324 0.07577092438372757 1.954968627701033
Ni 1.9994791461987338 7.2861322402682465 5.456418941424422 -0.18167826314151936 0.6282845386838342 0.04915383601683148
Ni 8.929765867783974 7.81645281870565 7.730095175353656 -0.5652778559443103 0.3358153834399765 -1.4784943609546926
Ni 1.4047766268925481 6.910832178583588 1.4798944896691013 -1.7111149194720339 0.08317493015728257 1.1933029703191707
Ni 5.952651614850822 7.4887953932638895 5.717707916546535 -0.8681913464499434 0.6823892909480377 0.0007332786215987372
Ni 5.990403692061706 5.437250851406054 11.622113197824865 -1.707079058839763 -2.2647323083592803 0.3787605195429348
Ni -0.047841380495145684 7.746612408937124 9.934996567289325 -0.25506988865979296 -1.2724029590761312 1.1165776524419737
Ni 8.288083193075714 8.629456771137345 5.440277735698493 0.3593018965976909 -0.18375494316489 0.06896598564675219
Ni 6.344280429654375 2.090584257886094 2.558125912475188 -0.9557728903153541 0.8731216938720253 0.8033355263168229
Ni 2.807239236200248 5.738856917586127 13.726776573185871 0.8839876900522518 -0.41756823643875185 -1.0434451941223577
Ni 7.911803406203922 3.6400243066959748 12.116149420688872 0.8441633589664622 0.06778996306078003 -2.0262663468047557
Ni 1.936338190566988 2.2216528264924387 9.350705260971745 0.6206488765154472 2.8314705508992013 -0.5217624491601788
P 7.893580517723237 8.410707463640573 11.449864446924275 -0.021565899096233826 0.7014805032515339 0.18859041688032036
P 5.744987198042764 8.91484605279134 8.607234737749941 -0.04194394853195357 -1.0605137195688703 -1.299205423980956
P 2.467815777796816 8.366601168787424 10.721142986591063 -2.287015031016881 -0.20717229364756581 0.40876323655261215
P 8.127902790337398 2.8851600460836098 7.226308354198652 -1.329223824719917 0.06360343578325821 0.8812240112641856
P 4.520050792643679 1.8939114246060673 0.6774183841768615 -0.263495650829643 0.6133975942696726 0.04657039156037141
P 4.520088115507951 6.866604584421554 12.77746298893247 -1.44150338555264 -0.4678343316831556 -1.3342930117127088
P 5.8965180269861 2.7684234573576196 11.272713337801592 1.7250096751762551 2.288314209444278 3.109828206442341
P 0.4458449405163143 7.684049957701589 3.6864072962697017 -0.5585495360815412 -0.25671590890364815 -0.1495674986499037
Ni 1.4108975766331167 9.47683508156333 9.311429477826968 -1.8615295966135814 -1.2214226113735223 -0.7061881931398483
Ni 4.0963523067146195 7.825261014673784 7.450929481316978 0.23512301322422086 -1.0191127880245805 -0.8324252445939276
Ni 4.413559330160287 3.7153325160803137 1.8814754462307177 -0.4576111112932506 0.20726896712643011 0.21174937149528691
Ni 8.910246009769846 2.803973485576469 0.5868656508807232 1.246945438234975 4.377550472213351 2.8030259224052627
Ni 4.784110057366364 0.16679028200084392 3.2466422503432564 0.5567543918543315 1.1668933699773902 -0.08313636360986328
Ni 8.012827069071502 6.437998141840758 5.31070488087784 1.4969402263647058 -1.9750494576113085 0.0405565812661237
Ni 7.0927531497602025 3.1319388246484707 9.573291358915652 0.6080944368892044 0.6070387419311803 -0.8872817874224913
Ni 5.191909003115656 0.640489276123171 6.630436696169154 0.17843713049640236 -0.5602719180892867 -0.43935576462748854
Ni 1.53196361761463 1.8804192091718268 13.168692449088315 0.37843321811050307 -0.3629142965392976 -1.5925523538440767
Ni 3.158979239813359 6.724898999497759 9.391196836420175 0.06449920812465021 1.7040161036437234 -0.0016745594889455032
Ni 1.083939954896452 5.941641369890654 7.937576710126785 0.011168615022309798 0.06054073769753445 -0.12843894420140461
Ni 0.9039019222223477 3.125118071202807 6.445747301535182 0.6679345489752885 0.8594822487117197 -0.4802825847488373
Ni 4.533048480126318 7.55539804455684 1.52924837923886 0.8494899133856982 0.1993815939585534 -0.37219289362774605
Ni 7.654275642728796 5.375584148913043 0.19280338532665217 0.14476030706924745 -0.47825038481015697 -0.019286616143753883
Ni 3.478770871609846 5.2684675284530975 11.375887730722832 0.2581390145034199 0.17278815974074113 -0.27028027785164416
Ni 9.110725775205593 5.245103415418978 3.0883914396877907 -2.770147169399371 1.2467181527155173 0.05290661819104437
Ni 4.349587940798495 2.662967704357768 10.037460892717794 -1.5037675336991843 2.883988161181943 -3.0172420102734874
Ni 8.56735152498914 8.166149395499883 13.650301091221435 0.47620404380408954 0.5138704480066117 1.3966918856649044
Ni 1.0779962887611745 0.4946940383467974 4.3485951526088655 0.34296253600771903 -0.8625081800222373 -0.46963590366826863
Ni 5.7083081531796935 2.9124710520144683 7.411803922700894 -0.452337264488821 -0.708177198545419 0.8504854445297483
Ni 6.4367384951715865 7.866661401867232 12.968775325831466 -1.830581227861183 0.1994885518500629 -0.5373839577475197
Ni 5.294882785641435 5.483876439597547 0.4469263705085885 -0.1728364964801733 -0.9590890991727806 0.25168940222333425
Ni 5.590293256352396 0.9439418910130893 12.44816429053436 0.5130872899836841 0.5744623506570559 1.276687445384098
Ni 4.265807441224466 5.023946783176679 4.489106405875965 -0.12309670605288478 -0.09106487442832059 0.33743414999032206
P 8.112824353171609 5.680801202211408 9.463971756392068 0.08034028892196486 0.6237334289780418 0.0998135671552281
P 3.251101399552125 9.239321704053932 4.711637452595072 -0.6775121653613945 -0.046452377925268386 0.7838915586595984
P 1.4058496592403613 8.866568927855822 0.4846467232848403 0.7374360954105365 -0.11026381595427462 -1.2939603735319327
P 2.704750650910001 4.7187763834586525 9.238121773967595 -0.10896849418161879 -2.1069629906248744 0.7030367919950602
P 6.253277955843763 4.246950064051161 3.9916290149261013 -0.5133886232741868 -1.8388684075706396 3.6885346770877314
P 0.5975689152822564 2.740048749795016 10.983592702792029 -0.7017000754615076 -0.1958139312119531 0.7729965090136494
P 6.786211134780189 7.022511519200754 1.3212629857980633 0.14547790196156235 0.23703359998337242 1.428704691126075
P 4.8023422765631185 5.554146062305199 6.7374348165350355 -0.41961123501070957 1.2558761650657018 -0.19725194921006028
