# total energy = -340868.03110231424 ev
CRYSTAL
PRIMVEC
9.23320780351712 0.00000000000000 0.00000000000000
0.00000000000000 9.23320780351712 0.00000000000000
0.00000000000000 0.00000000000000 13.51373292739035
PRIMCOORD
 96 1
Ni 6.886837303524896 4.005744087293943 7.2341988892986615 -1.2525411871551977 -1.0253947643785501 -0.2318962787568071
Ni 2.6020379781361553 4.477330173575641 3.0767393487156793 1.4453351005939044 0.4727189134689665 1.2479409693790249
Ni 8.904477862982098 0.10247198634892885 10.686498040283542 -0.17941466391832325 1.0024499826569189 0.18451367570778546
Ni 0.6643385314548106 1.2171583795986012 7.7138686489732065 1.9784011476923606 -1.4296081767769508 0.40444146924880675
Ni 6.446191696443002 6.574810280523355 1.534754873520262 0.7475634136525253 0.5886918639928764 0.8622137887102699
Ni 7.5325893877612025 8.785064787037287 4.152716441757278 -0.022213045761929485 0.3789803488632247 -0.05395125740547483
Ni 3.832381378414351 3.8284480319090934 12.324051755707396 -2.1824788615750026 -2.3556763409390205 0.5937520521246032
Ni 8.909666925742554 5.84942177936723 8.750993327086467 -0.6384905326825585 -0.6013591750478998 -0.5779780771197981
Ni 1.1012908554331773 6.398816107432499 2.5228789180574696 0.9150229620915016 -0.3839703458786484 0.28558579786046295
Ni 4.963643226232656 7.847164776104178 3.1969843366795594 0.09115100638422366 0.12456506306829514 0.005935134537512359
Ni 2.1365919750140727 8.5243928655903 7.662718524630899 0.11759583083931359 -0.5391978710278068 0.14615384498266443
Ni 8.379071408674243 6.529382898349963 3.8606571538549592 1.4051562143821734 1.5033114199983724 -0.053444750082701505
Ni 5.802618649237775 1.1854700105703333 2.748612381345085 -0.07413158900809168 -1.404271497784375 -0.7850616677082995
Ni 3.4606616672520425 0.09221666249120819 1.071091802816407 0.35684932129214025 1.548080753794263 0.9200870068779703
Ni 5.484793171763696 8.631830471071922 0.35422370578012113 0.7872321929970572 -0.23626278325561892 -1.2356734648655816
Ni 8.38534998995024 5.014979861371692 1.3731441914760951 -0.46928237698359176 0.7037091354717365 0.2293614281500953
Ni 0.677817168141135 2.2084540310009637 10.303396553916937 -0.3754612799663728 1.4429002659001664 -0.5374909156390292
Ni 7.876655641685847 2.6657655780875267 11.932058690269047 0.5222663853797909 0.9005610210299007 0.06005351364847077
Ni 7.175762840713871 2.4545005513579814 4.047173490507765 -0.6840191132419768 -0.3284134345489505 3.7635949485576794
Ni 3.256423111626959 2.5826205422193587 10.127556575395653 0.41738414545240377 -0.6303874439594498 0.037394381488058175
Ni 6.100685062107981 5.007925690643954 9.151500333399223 -0.8983971806093625 0.9215687336298193 -1.4274381657088255
Ni 0.8976423017838818 3.649923959892322 12.721098155752145 0.5711258300846551 -1.089121356003234 0.3620408927954088
Ni 2.411750799434648 7.4187347028872015 0.7663525506989021 -0.3453924856054503 -1.8077896838879643 -0.9891280687370321
Ni 1.6816533623215257 5.892106898836253 5.022797618381084 -0.16544483200179247 -0.1207130363120566 0.415053183326382
P 2.415000888565752 3.521240743357657 6.278790869813279 -1.4081988578632394 1.6876384336166483 0.5763765369606332
P 0.1122056339682762 0.6335217772389752 4.894295372718491 -0.43089400701338054 -0.4400946996760421 1.5201678294340788
P 0.7206481722927462 5.841111892384292 0.3171671497608756 1.9265751641600046 -0.24662150078212366 -1.4665371885928162
P 6.873449152274607 8.554049928911628 2.100345171315275 0.9442273515695997 0.4902484377122976 -0.6798492981350034
P 1.8885787814044261 4.137778958245059 10.540576424863161 -0.8061495987268502 0.5035222720030683 0.6503710861702283
P 0.6688258704255968 7.826445457893387 9.667724362590933 2.333301829898562 -2.246122663677893 0.03998399659210533
P 7.383962442467488 6.078146801968703 7.07953342613068 -0.14272733579961872 1.5546928597941418 0.32036408188191273
P 7.77520115483194 8.159237965144513 12.467364066615133 -0.6502433023431123 0.8702302312568432 0.4721650978480256
Ni 2.1546059633515293 5.720295368860142 11.960018690004304 1.3467093830991903 -0.45216808590080837 2.1773032309113343
Ni 9.09411871714049 3.219213284358917 7.518473659739519 -0.7186575292514527 1.4930462906269384 0.29712388040704957
Ni 4.643398648325765 0.7041068805928213 10.271747887682034 0.5050497643911883 -1.9180131335226065 0.753626846237786
Ni 0.042903946492905846 5.27759075644803 11.369724944850569 -0.7695869691114682 -0.6046638139411006 -1.1338981459982924
Ni 1.0046376366138563 0.3142365296182264 0.7731546548548242 0.8481591103894167 -1.035208150924546 -1.79927187622494
Ni 5.204232920804211 5.344706943646888 11.937788819004172 1.4309636623635806 2.556081748176398 -2.034502361561303
Ni 7.747640029671865 0.9719243815243593 6.851475964450169 0.45112010425226823 1.19372540256857 -1.3895825283136327
Ni 2.195232077490334 0.384740380743795 9.767928673114296 -0.8161799863796588 -0.6782683268011286 0.7955574250333007
Ni 1.9856197949496175 6.081886251111025 8.216132991354359 0.532823849180663 1.1994710468030954 -0.23330858572330143
Ni 8.51507655896165 4.796226703149743 5.749174072767401 0.37689749819226703 0.7604083879359936 -0.6686853110983839
Ni 8.78114067373979 7.516994499856557 0.9596672982245267 -1.2434785627322973 1.1024982915307722 0.3752869591720375
Ni 5.2056733012145875 2.653984004987273 0.7644218869565329 0.3939246288778829 -2.0399903812590674 -1.4241445825592183
Ni 5.201610689800707 3.5154238224696 3.1000642781560086 -0.5967877536271334 -0.015195219683199639 -0.47219080887963844
Ni 4.964446515307673 6.224594710231337 7.337943211676756 0.43384486211158835 -0.7819300640578534 -2.1775235744522563
Ni 6.658970969244993 8.596947412159102 8.936077593215881 -1.3053223355119714 0.8084646200132722 0.3500130150965972
Ni 3.8044878577749577 4.883637481002486 9.604061395093874 -0.40932733658619824 0.5594347668999721 0.7400658197238996
Ni 6.888314616766306 8.230518329042598 6.379171534604835 -0.8277949449107679 -1.4544766578838562 0.43480902579707054
Ni 3.5458380088271513 3.0018174076775153 4.6527648142763125 0.8182841772068551 0.890096374053151 0.47077721636156344
Ni 3.656599569101948 0.8287958114510213 4.159986669546572 0.5820450481003202 -2.6864739594494313 -1.240168781632774
Ni 5.840133172361859 2.062772478982312 6.314467061272581 -1.4962416576357846 -0.4224163085596725 -1.4188812772777497
Ni 9.151299972790857 7.15230125979871 6.225249344661437 0.06245929487648597 -0.412398005091722 -0.590480323351867
Ni 8.74406011138037 8.34523170223817 8.057644056853448 0.24426842716891478 0.44836876675937615 0.22978643150265587
Ni 2.601317787930968 4.70552890333486 0.8493175390157732 0.8039392213390928 1.3076016184644512 -1.4994480803882242
Ni 7.420987605580353 5.867934360923663 12.872384264880399 -0.3289495095580786 0.9283579886375108 -0.7908160536935736
P 2.825112277589231 8.06940808685896 2.9068575591611623 -1.584138932969401 0.11546232943607855 -0.29402801509054527
P 3.7913213035108813 7.137888222487193 12.456743107730164 1.2433726332820523 0.2880530284540329 1.1005082576839371
P 3.619140445224418 7.01514195854145 5.837594963548959 -1.8553450650694239 2.004130948358297 1.0670080690439623
P 0.20211399451977954 4.503663282103793 3.7763450405260763 0.048657355996387174 0.9165946774539956 0.2447736489401075
P 3.766594773132763 1.9739582535502287 2.2436307059205136 -0.9358987770992463 0.403168516073654 1.4261922091168664
P 0.9731062321174883 1.3729410609054011 12.286347951824256 -0.8828872578992213 0.6545838386999953 0.2883952422848001
P 7.318397434172112 4.661597300818398 10.63192978242892 1.7502077717084374 -0.4722607428856253 2.9402400416961365
P 5.742981360323561 4.126948405543964 5.243598702083937 1.113167341208844 -1.1582704041950698 0.2245452377083746
Ni 6.795345447842754 0.6379407904723461 11.509983833952466 -1.7973728594300142 -0.2507028699403489 0.6017260714690154
Ni 7.944168856818334 7.018041185777718 10.645010467860839 -0.6119829733103331 0.451507569498674 -0.5647091279250339
Ni 5.240953388061036 4.896130011100169 0.6513169385525477 -1.7382382580513869 0.46127287641555403 -0.19230180429363655
Ni 2.520499520418022 9.090065338934366 12.167616286612049 2.188752867509172 1.5088025250199304 0.2646559896863313
Ni 0.9136139045650876 3.6397951309808967 1.980788980650203 -1.4266928029023689 -1.6734132911562019 -1.3305939655945664
Ni 4.236334217862697 3.5103547914100086 7.612596979632924 -0.9047516620724805 1.444266550120074 -1.5102647113877539
Ni 2.6879714427474872 2.371687910969131 0.4239815137187772 -0.5740633154464242 -0.9597123345790762 -0.38655584721763747
Ni 2.7342021139958956 1.4415068617223936 6.2247230518191845 -0.13722311815193786 -1.1370130374781902 1.76695619481137
Ni 9.207465575587754 2.68200679053529 5.125637086398813 0.5207759168771934 0.6781207454796708 1.130874014459988
Ni 7.559965848766102 0.9659412628966445 0.7308767198479663 0.059576574012052234 -0.8610027991213042 -0.5815894486201404
Ni 7.677495350328114 2.9396132870063494 2.0796692491809514 0.20549696282767188 -0.37543942558950183 -2.4905181033429753
Ni 1.9920738071730322 3.7933064431790275 8.396406756241426 -1.1562353760429118 -0.7041238544116519 -0.2754631076041643
Ni 0.767729221975742 7.778294279431145 12.398971850104006 -1.2100135982056321 -1.481148767858404 -1.0495950157738374
Ni 0.5932077455224182 8.730736592584394 3.231092729461414 0.8666733671435203 -0.48716594213223197 -1.7005538561267357
Ni 1.7337009544579904 8.52057031757815 5.400655566061454 1.0225984325803357 -0.3265676395894634 -0.724242736648714
Ni 5.505475557143452 2.1673200904354233 8.709938792107653 2.7847055268295207 -1.31033058735984 0.18929361359493208
Ni 6.263918942076149 6.432471149713396 4.895254703004632 -0.2382790423546993 -0.3138404218307821 0.6717716633331914
Ni 5.597253642266115 3.1351172280915907 10.863905817482273 0.7226473671371362 -0.36686736764977457 0.470378438261248
Ni 4.582634908064976 8.78872113730978 7.057857547596075 0.21147143524355194 -0.13474097516003244 -0.5728968059421488
Ni 2.9326606815639584 7.230441897061598 10.474697487503985 -0.12330985050495537 1.261726967419524 -1.9346589696094032
Ni 5.627473931260731 7.691769889523248 11.08049101852245 -0.7628193113703314 0.04770913315050493 0.2644945244078026
Ni 7.086570053763675 4.852263041038017 3.320743483516446 -0.732760801422054 -0.9073903852469084 0.6606462428439912
Ni 4.064217992030546 5.376284514182052 4.718941060925322 0.4288258116304421 -0.6347436640456166 -0.2563762661760423
Ni 1.6430954867206964 1.9702834368622184 3.6553023034118337 0.10757392782693731 -0.7072490303041948 -0.8779610242421976
P 4.800437045887764 5.620659823934722 2.6340024200764125 -0.5293981113285656 0.503141748735198 0.23165253817711717
P 8.031478069385729 1.6054609318957487 8.83580588027588 -0.4811860703997133 -0.0029251440665949624 1.5020415521470132
P 7.001744574083403 3.87657151074806 0.06921858860554098 0.7618795731648814 -1.8191732431345573 -0.12724775210678085
P 5.5945760120160575 0.15887857586833207 4.796469536513801 0.16099630931213563 0.5734645055201607 2.0005321752634453
P 3.6159088225088314 1.0562882008166918 8.339391698330717 -0.17478333579389901 0.5053683240728716 -0.9921563140403946
P 4.723782955074046 6.848288661131824 9.206365900543679 0.1820258762889252 1.508151264589177 2.316516640020423
P 4.279056270162754 1.426410567036724 12.229130686663629 0.42290301838810396 1.156245146234925 0.5181212528631658
P 0.145420252239077 1.5585931693119817 2.0366009515899384 -1.0967981558222015 1.0470935895082223 1.1698395970899078
