# total energy = -381169.43280328246 ev
CRYSTAL
PRIMVEC
9.25444534214575 0.00000000000000 0.00000000000000

0.00000000000000 9.25444534214575 0.00000000000000

0.00000000000000 0.00000000000000 13.54481621190067

PRIMCOORD
 96 1
Ni 8.593613057346237 3.226590091981027 12.756819638378392 2.3620745311558804 1.9948657210062868 -2.3692527940718744
Ni 3.266106573103401 7.227231237253966 6.373662288787375 0.7558626775468402 -0.5302527460193771 -0.8367202724248557
Ni 7.299591744489526 2.1715833360206966 5.442374509298371 -0.3041396496032504 -0.39436068797403695 -0.22792186749009133
Ni 4.006323374642761 5.284038355008225 9.661598247293927 -0.08584347812838118 1.3891824646617366 -1.4281938129279272
Ni 8.679457291278588 4.936376611138387 6.979047376025959 1.358713349538602 0.14704987443437254 -0.5443164232012948
Ni 3.2301623078389277 0.30446939710301474 6.9465809312780635 0.197077371305409 1.3640170211397025 -0.48315604964189046
Ni 6.369862413576872 1.1718256180698678 9.133621967162624 1.4950723199180316 2.3809911655547253 -2.0180323889307377
Ni 9.007499611265658 0.029298648146445706 1.2193370144244708 -2.120126781700342 -0.5952353215383491 -2.2836162897479766
Ni 2.4588505703344214 7.604516460297745 1.4572058710016598 0.5131441113635485 1.0071980388648654 0.7132600123849651
Ni 8.797432959041592 2.6423199469740144 7.73124590780165 -0.966468165245671 0.003230591122155726 0.5838782446543169
Ni 9.21522488884711 0.8293148984137781 5.032251738253065 0.1377440236524144 -0.47691881048292706 -0.6371407035228834
Ni 5.267870839195395 3.43016937810046 10.27354010897635 0.7302007540043619 -1.1935770499161638 0.16983961863537847
Ni 3.9223300297559542 4.699647902213252 11.761993614289416 1.467866448927201 2.2117048483196555 4.141257092830113
Ni 6.194796073204051 3.129196310404479 7.481100104185365 0.2839354067412336 0.39963864854352465 0.20670075332778598
Ni 8.008445231152136 2.506335128797864 10.371536354937223 -0.5150732100654614 0.25461377495898085 -0.09958782429766719
Ni 5.882356747870921 8.870829964142656 12.092554068822947 -1.0735618110020801 -0.6486183651451797 -2.0040419881889164
Ni 8.952944656648235 2.7335225046932163 3.2843878042062435 -0.8604129880561052 -0.12463422574333374 -0.2504629860154009
Ni 8.56516489271622 6.96727387080725 5.317180374257745 -0.30665264583309126 -1.369358487957274 0.913508068108872
Ni 3.910549120981064 7.4424433610246465 10.487317793736734 -0.5578795065977102 -0.5212842239721797 1.4050554271382512
Ni 4.140540593780416 4.330284484284404 3.7940115940064496 0.6095142000548665 -1.193117593781242 -0.8105693250611008
Ni 0.7650871976443405 6.778446170380807 13.538829514566144 0.969601054447698 0.29077916913594437 -1.5536371648361178
Ni 1.1191215524979898 0.7026159905791247 2.58804817838056 1.587168463824344 1.3153851190646122 2.293398308835405
Ni 3.2984508591742903 6.867353625683534 12.88932848692701 0.2052053997291821 -1.0569211171216055 0.1669170456719448
Ni 1.914661427608673 3.3093896134334573 3.688321202283248 0.5164356376306267 -1.210906799443863 -2.460611802701846
P 3.296960893492627 7.916678152274043 3.519254518751559 0.3283188179526152 0.33010342065686377 -0.7173069287608291
Ni 1.659581153796966 5.959705401084223 10.506957577399005 0.6864014974312244 -0.30248077384358873 1.4049327855174578
P 1.4269336552172578 4.312784328358782 12.259020253245646 -0.11032063733413904 0.2999497798916189 0.4364887274923385
Ni 2.545092745411565 4.2220815106818765 5.578622153718988 0.3360411262975374 1.3523889499824708 1.5684567463474535
P 5.029874271274064 1.1819869989299068 10.637610909679465 -2.070947491762214 0.2786523039654233 1.937812684747037
P 7.098557430807718 4.195835904016056 9.253967698348447 0.4732927836945655 -0.02185489109156236 -1.5051603002816527
P 2.3500738211277747 2.3928571214155343 6.83092165115556 0.31102377831759337 -0.5260793313679779 -0.9609662615908353
Ni 2.8191261230496467 3.5174850688240187 10.511766187139331 -0.7671171674147369 -1.8261399042603774 -0.7307957072758834
Ni 7.431643423443895 6.014695314627349 2.9296621422940836 -0.9036077782760245 -0.7650042348367923 -0.8447110039398161
Ni 4.42976051603719 4.225172495387936 0.49868596098556106 -0.23492400983953737 -1.8689019778182523 0.39415757082429537
Ni 8.117129435906506 7.91177329630335 12.499711715617291 -0.04301404166768076 -0.3997116678733052 -0.06889553742013295
Ni 7.5183020485562855 9.098313482285295 10.253656007960068 2.478654776246486 -1.597257729739546 1.4104696561752867
Ni 2.7372150283390777 1.2015046239151728 0.8980550666762531 0.00436727582976022 -1.4491709294002268 -0.6995136093331501
Ni 5.822165836109817 7.911153248473092 6.558846514127663 0.41964363091054174 -0.07610336802248184 -1.5090660630939623
Ni 6.78911654572837 7.59336485379834 8.64174172519753 0.3273410274203782 0.29211999943455497 0.04512157492898681
Ni 0.7568979390623292 2.592373706079997 0.9167758839274124 0.5327657422492179 -0.09706737186865863 0.594909305657498
Ni 1.1397312020201271 8.465818423196623 11.149279931874998 -0.4730019919270241 -0.5761057997977497 -1.937812684747037
Ni 4.330145667605988 6.062568559790355 1.6730417443806882 -0.24356394490272246 1.6667423068939295 1.7498149071453928
Ni 8.449243711793773 6.465331270546054 9.911215622087708 0.8954748647562449 1.9254739606760256 -0.7555191781644924
Ni 7.008502424296752 7.763979806016626 1.366387372759408 0.327766544993571 -0.25403270564453023 -1.6517082953789426
Ni 7.627689591147962 2.5918462027020173 1.0642334378523695 -0.44358625776906824 -0.30338914459047106 1.2126052701922083
Ni 8.612630942289208 5.639242471738659 12.09660473949912 3.1439917396979276 0.34209530291141726 1.5861775606659845
Ni 7.5519234480685995 4.398258384482023 4.541929019419797 -0.788069858407004 -0.033571665307858316 2.0993576674737913
Ni 1.7315344654425062 1.8759315743306557 11.865556409054763 -0.6735169281590723 -0.44083672004838914 2.5865567768368036
Ni 6.424787546003403 2.662198495323161 12.488320418986488 -1.2953770513738014 -0.9655965612739951 -0.4566227792380523
Ni 4.72704106008731 8.786521968118107 0.5429768104009167 -0.011444494391515774 -1.1877799836184124 1.557895940112472
Ni 5.431942898637682 8.149825390896048 2.9287413249939247 -0.03950371452157713 0.28486151809992877 -0.5312166525945431
Ni 2.2214000146815254 3.8993697511459753 8.334681083430754 -1.606977271020155 -0.1643549413717234 0.014155979785407878
Ni 2.738158981752305 0.7728664843027638 9.977856882172537 0.7622418416003067 -0.367000036572897 0.3374025254214382
Ni 7.004014018361308 4.611119879164861 11.394061859037297 -2.70072686982402 0.00134520117398478 -1.104687328762291
Ni 0.4685895796604857 3.109049383143727 5.602650395308245 -0.31407927731446555 -0.06857054998054643 -0.002769849435653294
Ni 7.177655174169059 0.9787593817291272 2.877230157411901 0.10681905193878377 0.46130090144001196 -1.5221367802349917
P 7.012870522444238 0.3421525726257768 0.12875524556425338 -0.37123644325174776 0.9116990399245912 1.981985265499193
Ni 2.4589431147866985 0.8888561481198973 4.6213960151457245 -0.6478182378413875 0.9988229274272927 0.6756591713130558
P 1.1168912311981087 9.060647890208466 13.098907429887575 0.5310109643416404 0.41818478697682815 1.143908993267075
Ni 2.508000928938854 8.011054984706353 8.480179471301001 0.2464554075179046 0.4752213681758461 1.7165872554405146
P -0.1085870330794784 8.669018277061719 8.744181030312232 -0.45085425218539127 -1.2291732018532187 0.3310673272320298
P 6.679673476465327 6.904575004389432 10.97193792342068 -0.8691429117299354 0.6412495834849343 1.1940773865913499
P 1.3940711202136162 6.219283335276603 6.000312981298945 -1.463077769289306 -0.7728288730875336 -0.9118833880212552
Ni 1.1735099271013132 8.177338856558066 4.159735238627235 0.8250837166271919 -1.0013914594854172 0.1507124108876243
Ni 4.733278556170795 8.8449730441764 8.99512549255167 -0.4760464351803027 0.3994064779280605 -1.1693749987486635
Ni 1.240169696076596 6.228112076023851 8.200302836946136 -1.0133956830351452 -0.7096262722871198 -0.7346207374489284
Ni 5.3688368366298445 6.263612127917393 4.3242228226602455 -0.012926221143364837 -0.16435725536456855 0.8969005414591779
Ni 5.377952465179151 1.7421585685639314 0.8979810311144314 0.49188571620540444 0.0674310370594645 0.8554301901295331
Ni 4.786741486251346 2.3894792489074157 5.4309832126675675 -1.18785917359578 0.2113048277587006 -0.49074543195337417
Ni 1.0143334691844914 2.5024204984665372 9.913260854483035 -1.6329510693760974 -1.482592442283466 -1.5848315881610513
Ni 4.30011499284203 1.3580250560516385 2.9923480524885826 0.3842763071548414 -0.5753210991129253 0.6083242935118233
Ni 0.24043141246074545 7.025123407925742 2.1046339029097862 0.519397548472428 -1.2990447300333758 0.4572005061183932
Ni 0.05426714137084019 4.5130042508605515 9.392476203738196 -0.4190929006133944 -1.1268422675927756 -0.2687849242530403
Ni 2.493906408857033 5.948461250132541 3.627477852133589 -0.18704261277722625 0.3440519124171558 0.22454369504647784
Ni 0.29433948135675003 5.105186946537267 3.761056514550531 0.42531034227801595 0.40341894152156327 -0.012229709296972485
Ni 5.526551092200686 0.9040269601817023 7.032522336885305 0.8184500133607582 -0.7839262685522757 -1.3296951079293808
Ni 8.162439199741433 8.088783070173992 3.4230999073910033 -1.1603871934277563 2.564426263486351 0.8701204451518563
Ni 4.019233325735433 4.782336370322951 7.465834896782237 2.0832342795493672 0.4238445563657668 -1.9662979366709235
Ni 3.9973465627718703 2.2915579639528874 12.76197991703737 -0.4131582802965143 -0.08681972599872145 -2.446163745597316
Ni 5.702635421548557 6.053730564597881 13.348917193159012 1.1136247404612372 1.0136831323685769 -1.7055376824945723
Ni 6.266767893740046 3.2285427799240765 2.987945712893755 -0.48323369695736135 0.14903759428836266 -0.1708513477293445
Ni 4.52324892172764 9.097795233352544 4.827494361256144 -0.4744379530426022 -0.1310946366566968 2.3714534012676194
Ni 3.2580366968648273 9.06717227409401 12.324306662549136 -0.20676245980365682 1.058617273877106 -0.7326836683272155
Ni 8.422609418428388 1.0334809163606486 12.228842432802566 1.0881142548949583 -0.6559272401017672 0.20463075817263468
Ni 1.1545198054940273 0.9909012138678989 8.062240395816362 0.4973583092842015 -0.07344844689813802 0.19836369421700029
Ni 1.7873942968370375 4.769611508134832 1.1384827773589075 1.2819736334837017 0.3292035345504137 -0.05343497989068862
Ni 8.684297366132688 4.921347392088565 1.0216296738020276 -0.6215425919743102 0.0008633764415598035 0.11026278751301011
Ni 6.55241560013892 5.5572665959114955 7.289833857441415 -0.8994137947993349 -0.015048152582374083 0.17084929084681544
P 5.508310580656846 4.400192563534618 5.660933965907918 0.269162105086801 0.36323285622098084 -0.42900321774857086
Ni 0.7807031485215989 8.299497533563999 6.643461757733773 0.7765199487858756 -0.062201413229409 0.050566657203958074
P 4.768852643626159 6.805839328254864 8.079076082574634 -0.9434727327917621 -0.36606749745629863 0.6270990030161651
Ni 7.964903066355703 0.18843068472617444 6.956102829972867 -0.8006860045091178 0.13976979583319152 0.5428696634524393
P 6.599696560807352 0.06640156995342954 4.585286095311675 0.6427917311610737 -0.6138578217355428 2.1663883837710434
P 6.493770180730844 4.647610156697771 1.2593402793658226 0.2482724061219853 -0.0562074004295032 0.8799718840246392
P 3.3544402528020094 2.8860635253817613 1.9906135850371118 -0.5437901183841796 2.0798139410139083 -0.26405460865690655
Ni 4.245014025956172 2.0822964484636333 8.602150283068813 -1.778415858711537 0.8249988702228696 -0.6827603011342113
