# total energy = -340856.0609809494 ev
CRYSTAL
PRIMVEC
9.49321272502156 0.00000000000000 0.00000000000000

0.00000000000000 9.49321272502156 0.00000000000000

0.00000000000000 0.00000000000000 13.89427641171133

PRIMCOORD
 96 1
Ni 3.8252425632023432 3.36935001307102 0.2576847129504541 -0.3545728665531377 0.11036948829420347 -0.1773608667130881
Ni 0.9732631452546393 0.7393228557343847 4.225819112659819 0.13482762133656778 2.1279856156231283 0.5538367039869042
Ni 8.543834407739839 4.519348297858692 9.320016560152792 -1.009582994157274 -0.21676276554947832 -0.5739231903241342
Ni 5.5841734789298485 7.284901508022718 6.9090262978285475 0.4599888674968078 0.8351321020021294 -1.3812963770454405
Ni 7.245685046648116 0.14485693152143483 13.757932080071196 -0.26562401002655545 -0.48448171043184945 -0.32235925793507064
Ni 8.858097718643934 6.714720171038616 12.438392612281518 -0.141720234691343 0.3557157219083293 0.8863613324907509
Ni 7.740917469918232 9.230136721614315 6.510816406279736 -0.4317000478544436 -1.3255322348009428 -0.8570841807931885
Ni 1.4079288719452439 1.1734275335585551 12.574569899495328 0.856683088700028 -0.14172563400798172 -0.0669947208529943
Ni 0.9707379506950546 8.244817196319554 3.0742193229014623 -0.20064734804485443 -1.6561550182963864 0.5530301489252089
Ni 6.452403719645976 7.595424493150586 12.627854352666352 -1.911273243695612 -2.4710795350023895 1.9800086013887963
Ni 3.770447739901883 8.9918950574514 12.110667925868059 -0.6429208005397702 0.04550415507938615 -0.14722856610408191
Ni 7.279205580444708 8.990556514470565 11.375438543419737 2.2951610571627823 2.535965694152813 -2.2696487718242913
Ni 4.122721874176567 7.484088095425743 4.051265513389164 -0.2090612831401625 -0.08504515059680191 0.5988682903052461
Ni 3.1122168557743697 0.2916077589625581 3.3696537958751804 1.3193826702597793 0.460359106352033 -1.8251513150948633
Ni 5.051461852196424 2.5896439801298046 4.77976990401038 1.7685027133628834 -0.1892339640015902 0.9548614342446782
Ni 0.5441680357353288 7.555040366622492 10.538196996691775 -1.3516811252821688 -0.26696921120054024 -1.0350271452619915
Ni 2.808880232607425 3.3441265471130635 6.961102265031771 0.19675392652771923 -0.35542467303047176 0.4068832459210799
Ni 5.824389731319807 0.9638838511761821 1.5132674579304426 -1.537174134184088 2.926735579451798 0.4019338723356045
Ni 0.35353578223321336 5.695320012402092 5.239017355485152 1.5444328726290304 1.5274309387543954 -0.9868469860123391
Ni 6.4944681448095825 5.478153280277815 8.234637624416386 1.792845660983622 0.09208688793493172 -0.8087181307849748
Ni 6.8161076819272015 2.0222821272968172 6.763427946400709 -0.7004983418439226 0.9172850186528009 0.1322385204531529
Ni 4.645114378781162 4.100925457978048 8.128345919883133 0.12571948838771252 0.20992028870634813 -0.44762186129102266
Ni 2.9267479606217206 1.802893983417116 5.245533496634397 0.17696414549530165 0.18182687290424168 -1.0360507014304994
Ni 7.273623571418257 2.551054070788784 3.4741389420449407 -0.24462683894959808 0.2222443574893398 -0.13504950753938677
P 9.256537345938392 8.48958069755929 5.051736206041432 0.12192659700418357 -0.5999152435125217 0.07354794859047979
P 5.704082247659598 4.087815331335993 1.1225467618254512 -0.12746706720643855 0.9706518643097153 0.05442999681410626
P 2.14429838923043 8.907785193549445 10.515118996788203 0.7640598686456519 0.612936338362538 0.8615237046217809
P 4.702937536910598 1.9955967065938385 7.750782816483347 -1.0903871100895348 0.42027535095726976 -0.14942865907919428
P 1.2447500400478755 1.5526054324267085 6.431854711587041 -0.44358060134211347 -0.4350720496504701 0.6312477350772161
P 1.1958884746411764 0.4909614269078706 1.8515647352499518 -0.2958627543064389 0.7655930174607267 -0.2827208176078421
P 6.4904620090797165 0.8278461141880334 4.880683703588727 0.7412310436765943 -0.05678589864079253 -0.7661326920142806
P 8.10114691637687 4.290799203791025 11.497222221643915 0.30537017957624185 1.0203379186809332 0.8224416510186545
Ni 1.5070854778657754 7.675281397794293 7.361646537566305 -1.237621589730888 -0.17039986201422266 -0.23567040108725865
Ni 4.571902722978468 6.668972379374562 8.929239854093284 -0.1286086370100495 -0.9567383395524168 1.8683859574137822
Ni 0.29284282592572336 3.6018008175296248 13.235951580894744 0.19689687986348672 -0.4891816870106801 -2.5824921198491264
Ni 9.093785708609376 1.5585102106825794 0.2746452866352431 0.20121941849824057 0.1121332650628456 1.3277076451857068
Ni 2.654235798864442 2.0688748148849423 9.354002261368255 0.675471737892598 2.5884542509698325 0.7129149703407206
Ni 3.9486258477546787 6.804934170661671 13.297197991498562 -0.3410900015753545 -0.947083590071472 0.2800255301638661
Ni 2.6131776542396175 6.642078107993723 11.17317995240964 1.5416401403752418 1.1688710625290513 0.35872622659987896
Ni 5.449322393520452 1.2405445468527778 11.313678550012634 0.9997012162671879 -2.8157780798646086 -0.25792098495534294
Ni 0.6280804408145783 3.5923740573880174 6.011497154972398 0.14198120166221354 -1.1717848937417368 1.0643472343823475
Ni 9.090121328534188 7.981522944026022 1.081913913126451 -0.6085410375083197 -0.40870435829021873 0.004376017580508592
Ni 6.462542470734834 7.406879797105811 4.294151257170683 0.4153223778273686 1.6125370244961197 0.08236066178610331
Ni 7.3766344216665765 7.7916397050004145 8.763328875600997 0.1915063049755347 0.0243822854991064 -0.27904311164593876
Ni 9.492073444501754 0.4307924959375576 10.714779295501465 1.9315535912112023 -1.3089424487630619 -0.03692489805080738
Ni 5.215675444270465 6.316622299398838 1.9982054414245671 -0.05909809171373692 0.5851810226261406 0.1407208468925512
Ni 3.5403987182386722 4.823406405185518 2.153140367474028 -0.8819359497295456 -1.471137149258673 0.2721492127395829
Ni 0.9741744936671209 5.343245235592639 10.141613292466486 -0.6706066964908128 -0.44750950408287443 1.2605915682634998
Ni 8.552985864715177 0.5271030367116096 3.1328123805751926 -1.212234774226667 -0.5868478688056022 -1.0590060246750923
Ni 7.957267785756327 4.353055692218678 5.8613980714366685 -1.8552918432339855 -1.3280184915579065 0.1201517644919479
Ni 6.3695279733859245 2.710397644783625 9.066473735872815 0.8865181697835893 -0.972406385106977 0.6400738180092782
Ni 4.968557626298483 8.589591692616523 0.4582696505738798 1.5898156716392038 -0.4350386253093734 -0.5375845037941
Ni 6.449973457212692 5.200505290487698 3.897288452494071 -0.17960132600783263 -1.2261339008062626 0.4764285011100699
Ni 3.0720131002862465 4.891767029334273 9.64032135157463 0.49229734982152634 -1.161770189818212 0.043614651366157144
Ni 9.351298594411226 5.054452214174881 1.0187593667839974 -1.298961683401266 1.347154441056409 0.6614502268025253
Ni 3.2171643213992116 0.48553130928350063 0.7466715516312811 -1.226518794949507 0.9298685117447661 0.6235459955575842
P 8.506981756310113 2.7917544770228737 8.045133164574716 -0.10657531135909389 -0.1791585820434592 -0.9566804897312878
P 5.466619026932345 5.173990747612058 6.271389989180594 0.5838918715010718 -0.13063080964640084 -0.72245119196593
P 1.7741770152113134 4.235615158772734 0.7590222212629336 1.1889272098489783 0.38555774497042633 0.41300170011399195
P 2.462055202382371 6.12095769388155 4.403791217798543 -1.8314782857541554 1.1930810841163517 -0.04312999842025476
P 3.597557351484007 2.81178515567221 3.3178835101186435 -0.3071810075327355 -0.26900115402890445 -0.9051509543934283
P 9.10155115654073 3.82344834601527 3.9551305970487665 -0.20206376877640683 0.3807826921792861 -0.3049814287782554
P 1.7713480378475683 2.9545535804150416 11.253141282392276 -1.0242683640835908 0.7007472246299351 -0.4558787019831762
P 9.262442124194264 6.735984967329855 8.323435236715042 -0.1376820600662274 -0.9751276406928818 0.5291721113606886
Ni 7.271554051064914 6.241910716000602 10.737844004907355 0.09547560190150653 0.3180963688936586 -0.4674430097820079
Ni 2.3636010941964614 8.901272849685252 5.357771749559091 -0.8751155843736025 -2.2802165200378086 1.7717399893532582
Ni 6.723786189100283 5.136758367677131 13.0727490159658 0.05023472778583607 0.9923308919450459 1.2611397274574863
Ni 2.0202600730066234 4.008812815828989 4.1623503409793114 -2.314162795076266 -0.708733071048889 -0.7544380292851717
Ni 5.7655507994389605 0.1426554555125338 7.834759775408479 -0.33010522042907664 -0.6237881934753773 1.2288515568477416
Ni 1.7105060381017871 8.316718788779305 13.782733098067116 0.1614781340445606 0.7913654984391403 0.13719072225210566
Ni 7.895438491897025 6.600953510880488 6.055486803657373 -0.04400571615698873 1.7221824901401048 0.9424268080257511
Ni 0.7777134076101748 2.6822028032724736 2.2796478683029027 -0.4172514765292814 0.3916530592348868 0.06754082316445142
Ni 2.3601170851612445 0.13271321392511662 8.514371273021318 -0.2642618395717061 -1.259290075843257 -1.088001640576494
Ni 9.511344666140689 0.503771568030816 7.933700885402309 0.4476678840376097 0.627172793676894 0.030768905751740558
Ni 1.5224644823264033 6.146057748075316 13.258252086683918 -0.14503978598287925 -1.798457864964077 -0.44509909486916893
Ni 1.2999435782787965 4.9669437801513805 7.806957952900211 -1.003376608236246 0.8643280068397954 0.29093420665656994
Ni 5.650644953765231 4.608622469431375 10.282834323550624 -1.6505217312700091 1.3702493752026597 -0.3363655995164917
Ni 4.049187449144453 4.823909545454909 4.578789099420283 2.8353377471640906 0.2675058004303006 1.0286685500338153
Ni 6.827423591382182 8.685824389047008 2.1549051557019485 0.7343942232604191 -2.099831521786416 0.8368130892489782
Ni 8.311867757125366 2.2644444882759296 10.870756576297703 -0.984649464140388 0.8110292954166549 -0.3932224606045357
Ni 6.179568788659278 3.241894140300407 11.842480871785016 1.1777287700299974 -0.9346559058310807 1.6355268005230736
Ni 8.671176361958892 1.7382641918319577 5.38560205170525 -0.003736841334612919 0.053323136903172676 0.033342322905871614
Ni 8.568374362388434 6.043483585607979 3.084710272178895 0.04559568635192792 0.32055100108173823 0.15816372495934697
Ni 5.3491025477853595 8.40752136758542 10.114241512490358 -0.03083575443393399 0.5857417802256171 1.0960731047307188
Ni 3.862361024585711 2.726564585892545 11.515562159123846 -1.5043396041525705 2.112484434663736 -1.1096788684396115
Ni 3.2770664930946207 6.104572408882141 7.1144812535311726 0.2962872434383671 -1.6854054305210715 -1.6632432926017355
Ni 1.8536921642003388 6.473526117747765 1.6664375957519835 0.4918196388541594 0.6247546711537046 0.3856562182215036
Ni 4.472053112535946 0.12165741849619842 5.60849414036669 2.0445880279320785 -0.1931854924501705 0.5641910506380348
P 9.237066766834227 9.08537472221918 13.013170562821076 -0.26180746449394265 -0.33989443860535656 -1.300587134819831
P 3.7033592062455507 8.066487197064678 2.038443372478159 -1.0123155625970888 -0.5948535127188981 -0.21614698634235036
P 7.816189152861639 0.4150119285826797 9.254226697984246 -1.4305438012173428 0.031712243501616354 0.7736356852595451
P 4.949609173888969 6.417364271828582 11.420025315179139 0.022338515596200238 0.36892090774469366 -0.6302102949516373
P 7.007253518232601 2.412510125666311 0.3926743992642489 0.9923074949062781 -0.5322744044350962 -0.3140471385249495
P 3.6756769982164195 8.146524472748354 7.6390448558642525 0.571469586577319 1.1279871798304961 -0.8451660891993638
P 4.261702507080021 1.551836482203677 13.14208174508787 0.6910780769712872 -1.6297927262527736 0.003726556921967776
P 7.143186829881819 6.702910614526874 1.359273309252616 2.2414157451205265 -0.3325403122331306 -0.8281387014034318
