# total energy = -340893.4499789895 ev
CRYSTAL
PRIMVEC
9.05951573477589 0.00000000000000 0.00000000000000
0.00000000000000 9.05951573477589 0.00000000000000
0.00000000000000 0.00000000000000 13.25951702773256
PRIMCOORD
 96 1
Ni 6.179758537532196 1.8814712075225495 11.445748026401668 0.01427810718556896 0.7348284825843603 0.6336162353093927
Ni 4.671258541073336 0.49472204556258154 6.124703859263741 0.5089264737377751 -0.36089263812357847 -0.14544627739267854
Ni 2.868487348380155 1.5328338562299766 4.776860788438196 -0.240915708646598 0.07146638347110272 0.29186777421443283
Ni 3.400226576007063 4.149684090312844 4.457783731653133 -0.5462871737744204 0.27209881911762174 1.6532237035822046
Ni 5.1775495884705105 4.50071315380928 2.866588473842543 -0.24250156507647913 -0.008234986315282591 0.06357566786911631
Ni 7.1401397015740615 6.139588643926416 2.5892920925944996 1.297417735952914 -1.092996265577608 0.3749727703657284
Ni 5.141846036215124 4.475781365987198 11.603602843759777 -0.18909152488645498 0.192288691667514 -0.2624391845406706
Ni 5.490501506539545 7.952751101384106 12.406267801037165 -0.030548047990186098 -0.771374142918878 0.21516868158948102
Ni 1.6874435549842068 6.545409659729518 0.5436615505825249 1.6979292740196952 -0.8524752212662673 -2.018221622123408
Ni 2.6709808417271033 1.6674945009201723 0.2839315707105772 -0.6745404843275802 -1.8833405218410852 1.7662414281325323
Ni 0.7563780785199125 0.09561231915577156 4.7577008182111165 -0.5868010747280669 0.01184815758783766 -0.5850624947704054
Ni 8.577440962388394 2.113521648392751 1.4762752983181833 0.05432561002575805 1.2993388642350268 -0.5740784849550757
Ni 7.004400974488942 0.597785816565614 4.6681991425458955 -0.4388855098592893 0.016151927169514118 0.8447117752707645
Ni 0.9177833201685263 7.349604769246426 2.4728202380243594 -0.8294412222649392 0.653455638632823 1.7727494044543795
Ni 7.55191281933905 3.758476073694704 3.887650275541494 0.45098974932199104 0.5075329358243581 -2.1176549231210817
Ni 7.49645952236995 3.6396152247754787 12.82555941106725 0.17945683001016835 0.3416749275445471 -0.46649812937023527
Ni 7.846492039114777 9.161526073022566 7.203285433513992 -0.4657319406281721 0.3253466226981687 0.12422927699543122
Ni 6.864277441696743 0.6016678191389286 0.39840489606794444 0.5557280074723461 0.1899055361473181 -0.6256455583990903
Ni 1.823327234324105 6.496017178913389 9.132731307610609 0.4036392850624855 0.6201063737484159 -0.1934857972994087
Ni 0.024463410848825064 4.762659997227762 1.3471400523898651 -0.04149554814062531 -0.4503395173325018 0.7818863553041114
Ni 6.4554849046706595 2.11848626311895 7.073329395442984 -0.010859311312007104 0.30659299623974945 -0.15848896950924962
Ni 3.483247979932046 4.2382136799194505 0.5542041092629595 0.14999070223025135 0.0008327803139405012 0.07846672604833582
Ni 6.221396072717621 5.952355628330864 4.937923580384893 0.9860818257115405 -1.3099359230245826 -0.6385890059336358
Ni 5.344878847581645 3.266435644845544 8.979040243771044 0.07863796151887746 -0.028260794617906166 0.5058473205918191
P 0.19406751440840692 5.526041987508304 12.448512323789478 -0.544166784997308 -0.08780908649518425 -0.5058483490330837
P 3.792077818255787 5.99855010002592 12.750113574357682 0.30598415901115694 1.526374729575739 -0.7932909975966274
P 2.5231929584634356 8.479435119125576 1.4064771638354636 -0.9522232252908828 1.4518890996623381 -0.4962072263988938
P 6.452431847804366 8.030753533487347 6.114069799472477 -0.248433614290198 -0.3432121901246799 -2.370535774549356
P 4.549299337708198 0.8851355426342113 12.489218540737944 0.33119048307345544 0.42056125762880475 0.3860642522931996
P 3.9928185720936074 6.209437511698309 7.983648580441957 0.13961424409193374 -0.017878165832001466 0.561190316138498
P 4.7715202038011615 0.909955898410431 3.811621006006439 0.5886075318091863 -0.8036229756502546 -0.2722281456066344
P 0.15017053595160695 5.5399302254193685 3.4745508446452735 -0.05874430791874399 0.438296984345671 0.6799665404391579
Ni 1.5582910959756335 1.3931904777817339 2.654714480886062 0.508910275787859 -1.9525677315690244 -0.5719267287193956
Ni 1.6931419905002276 6.4088102786316465 4.844789038834259 1.0835212362076372 1.1634964284806995 -0.6835005217343455
Ni 5.973844800101931 5.6674338525298245 9.003808960306499 0.002111132805731848 -0.4260693319312275 0.7451069816922329
Ni 8.444873065876578 2.201380833821002 10.413971535219732 0.19040227327807854 0.9009549140342096 -0.2687759253919758
Ni 2.3469400761674346 5.225999879630573 6.7577393463369635 -0.18235857703799563 -0.43247677811946805 0.6389713289737189
Ni 0.46330726814548506 0.05613366661497055 9.16690108382011 0.4424395457591348 0.4088406267577669 0.4545854370930494
Ni 1.3963431893231888 1.1025430879169018 11.397695447990658 0.3816555817025427 0.20278676298536044 -0.2512037208361673
Ni 4.179797921243294 7.047035056425976 1.66706598581698 0.3672036679432708 -1.3813724816990143 -0.9399629198662908
Ni 5.699250872453934 7.916313728338898 8.17957057775995 -0.4936469218708854 0.47222731854452865 -0.07881228231321265
Ni 5.378081973442085 2.7913365107737436 4.796020758665274 -0.360059857809638 -0.280357202471672 0.33072794161474006
Ni 0.4589432993250284 7.787215626425867 7.028963134061336 2.487042743199865 -1.6854576239152457 -0.4337330191240724
Ni 4.984844625257031 4.660196872130473 6.647712431394958 -0.3790446264422569 -0.07299361874890654 0.7770619373322747
Ni 8.343062225925797 7.084079417038073 9.377926200134537 -0.4971287097718986 -0.378349143037129 0.2746418972544496
Ni 4.415336275744129 0.05990061333605393 10.370242157807521 0.967335912562605 -0.02259331191948367 -0.04132482689071593
Ni 8.371545343989977 7.287230002111603 4.825389897386794 -0.7687881273592566 -0.07437918624252352 -0.5742816021048174
Ni 7.423222395642586 6.404488889536031 7.13480002288862 0.01290693786965519 -0.784322732659746 -0.2225724302527199
Ni 2.521390114794615 5.408014614054061 2.5420086670854123 -1.6769138481102928 -0.9695236642425432 -0.35604225200981265
Ni 2.2608021987646905 5.208216049872307 11.304878895448946 -0.4454420800308844 -0.3391056241554741 1.0572445618992954
Ni 1.0679266775723621 3.4524456257913934 3.7358689576586497 -0.18074829512808227 0.9274737862603446 0.3838338203007841
Ni 3.809390553186019 2.547581175330093 2.70149419730979 -0.03174155407765501 -0.14680870495784393 -1.0727046052081075
Ni 1.3341405529909174 3.2928894313428105 8.181175018030041 -1.058427012243171 0.6233212811412878 -0.395078539976668
Ni 3.704381704114163 2.660354029548578 7.071446828034036 -0.14651868452125089 0.4542527363439789 -0.18977646676862153
Ni 4.511847298879533 6.997986837214947 5.976687676198796 -2.2187537847466365 0.9357499102262077 -0.13633865866445552
Ni 0.7802770815266896 7.451234418878732 11.53685414233698 0.2999968310794704 -0.45583730722227944 -0.4523647752926467
P 0.28203903783411177 5.616537492070357 7.884970521097598 0.35383264595300357 0.2502238734214013 -0.15107956441905593
P 8.56990344513986 1.8275761472923304 8.154961308704753 -0.020332540909764982 0.6704768557811679 0.2396658953998969
P 1.959183735116232 3.1893663428824457 10.238044795496986 -0.6712764688643278 -1.0167877394358293 2.156330485314409
P 4.074191144120474 6.110190514753939 3.7231928829781786 0.7820642756428724 1.7137091625617713 1.9390352443002283
P 6.839662736931992 3.872435724499196 10.426461889823766 1.0246434880348223 0.56392571279179 -0.28912517847228913
P 6.352387613458709 7.6208647950344925 10.245509836618131 -0.2644150773201189 0.06489464379085598 0.6617379332462733
P 2.4903793917877164 8.644916236988273 5.902500206251032 -0.010011104379098888 -0.7486543327238591 -0.3261760605779995
P 6.802400947937725 3.955891985188518 1.6929617061333457 1.6861245680752834 -1.0249743890116798 -0.5726178412491493
Ni 5.34311224197652 2.761947441117191 0.4659091611187778 -0.26093123253657646 -0.6609056671529651 0.025054371865466527
Ni 1.4552300428273783 1.256219656530989 7.022491921837021 -0.35171662805126525 -0.8876746519855357 -0.6617782995659055
Ni 6.655482778202734 0.7536348570982095 9.516395465319066 0.27775524607245067 -0.16606035409860434 -1.6135754930629629
Ni 2.7728822768371226 1.3491884089402186 9.141243628772537 -0.6416799861541337 1.0626891299536343 0.5429542527464456
Ni 6.373903963777548 1.8126551245659612 2.5568590255875767 0.08072595439615775 0.524104209919478 0.23874312647531137
Ni 4.0933248417513735 6.588261170048721 10.476384352321434 0.34394906829070443 0.46691104853793786 -0.019031048489522067
Ni 8.341531167734688 7.128833425701257 0.5903479539922386 -0.6267267072784111 -0.7439918942511832 -0.9643436627035004
Ni 7.825256533789573 4.001878088017329 8.094431059012 -0.3422248865107461 -0.4270386378230323 -0.2577767460679948
Ni 2.962815028177943 8.280778053950213 12.395302162963095 0.4319880114085076 -0.0752495046626188 0.19975800346136566
Ni 0.17931862248458835 4.676531179340942 10.011584981903312 -0.4942570446510585 0.14714783346481755 1.022289385980349
Ni 8.495841902463436 2.405464549034675 5.63318616448338 0.9618568917259047 -0.2546333153430066 1.2494887734821192
Ni 3.6249659875268208 2.7235713316643064 11.86376768039606 -0.5484157900816491 0.8355118539390515 -2.7029508740585317
Ni 0.9127552888308609 3.39790733993059 12.66977378714612 0.9154088846760107 -0.018992224831786645 -0.4112669768110724
Ni 3.3189898967190525 8.399946926410845 7.903932087925948 -0.6031504626203676 -0.4759937275654963 0.498354868869516
Ni 5.776637257474363 7.798050807470638 3.5550219948377295 -1.1061019497216305 1.4735491011342752 -0.159985351549118
Ni 3.0777802852499683 8.333196413084863 3.479204717975289 0.335880432349957 -0.039040658842229535 1.4382229150291552
Ni 3.225622525609179 4.488845187949204 9.150140979361224 1.56925327410682 0.07338108399531232 -0.5233606468852341
Ni 7.036978993750646 6.087097808664374 11.730681579573409 1.412565362362051 -0.36703757467905174 -0.7141652978080539
Ni 0.6075918366014502 -0.05451744897417864 0.41008804780317565 0.547845776510792 0.9234698073072741 -0.21617963935249868
Ni 4.651191713302293 0.27962467684044 1.401557846688883 -0.2239579977463369 0.7297945197048786 0.3326254157477691
Ni 5.811697584099165 5.460777234793815 0.5441797548933618 -0.32749452227910697 0.9950004683574091 -0.657856595913996
Ni 7.906982426937464 8.753476416302227 11.374146142298535 -0.13437562140081372 0.6481326837580128 0.44804377931978967
Ni -0.06569689162405092 4.919878836568024 5.676465283954182 -0.10018252045887262 -0.39687394131419396 0.622261986638838
Ni 8.047423042786994 8.81544350522048 2.5371690736789607 -0.10421915242209148 0.08377296875259765 0.11073458494310606
P 8.649772137523387 1.6988223069844008 3.5777758750317483 -0.5011627706319562 -0.9024574667216652 0.6933023383161157
P 1.94754225715425 3.2522575024249196 1.6162421014849027 -1.2030981020327214 0.48870988958058414 0.16314909398908028
P 4.804342829992804 1.2941518497036109 8.335542827709109 0.21479304341761718 -1.7156976537467097 0.0946029694885661
P 8.598377503688116 1.6538508699390475 12.572395768336817 -0.319204771466489 -1.2384445998528157 -0.45930649671780255
P 6.405784400313124 7.701666617558165 1.2792317329288339 -0.9104726237166577 0.25198739307972734 0.22081096747692297
P 1.8774216039046459 3.1668806243597687 5.94253148926318 -0.5719056456734731 0.5646744180323565 -0.6609167228965586
P 6.844274030537166 4.018583835380671 5.856397235666806 0.6749906844911213 0.19616000169746217 1.4799017828251804
P 2.4162725515316743 8.359034152499317 10.11799262023379 -1.2224492528658237 0.3751733164123087 0.48059163134882393
