# total energy = -340865.4293843511 ev
CRYSTAL
PRIMVEC
9.31643738012618 0.00000000000000 0.00000000000000
0.00000000000000 9.31643738012618 0.00000000000000
0.00000000000000 0.00000000000000 13.63554782573534
PRIMCOORD
 96 1
Ni 6.987616769050457 5.776815314480081 1.0607527790370008 0.692685273557407 -0.7845659590188037 0.27096701950602364
Ni 1.911798144778732 9.043419084855737 7.808818791255322 1.7605209807089874 -1.8123554488817757 -0.18134607661308122
Ni 2.286999023329044 3.119376112050461 4.811780543694607 1.4649037667544513 -0.23482322259561492 -0.248967632416797
Ni 3.454423145926876 0.011450833060020075 2.1433581933563897 0.680264531295551 -0.9626451919551549 -1.732227790191249
Ni 4.374970997059838 8.011921782163277 8.199668489503718 0.28998135582499734 0.0012194742293978997 -0.12668056674940117
Ni 7.8519585540772425 3.0446582850702635 6.671300432324127 1.2715732640859843 0.3148938027959609 -0.0004257746835089441
Ni 8.710309869933422 3.97578960895254 -0.0031172799136626127 0.2890904685796118 0.10798427589147855 2.111117122002564
Ni 3.0137556626147375 3.7968581145657976 6.8766934035153415 -0.07044539840575609 -0.20536557945613018 -1.1669098250376226
Ni 2.5933793796969717 9.242585881013177 -0.10373573417411565 0.8854398491177459 0.5148883477481649 0.7650206898970244
Ni 2.1952786983140755 6.8160918423007795 8.303052993992404 -0.2599138470156556 -0.35182924236972957 2.778134301369906
Ni 2.857174301261099 4.787474890476574 2.7317731921939097 -0.3052786483037001 0.11946399439630392 -0.30890416087142925
Ni 2.4987802755626918 9.728782793309383 4.384960081110732 1.1047768031523038 0.26583612603736156 -0.00721451547056822
Ni 4.401485577556801 1.6158521981636498 7.012366816326716 -0.22315761333222858 -0.20958013175811002 -0.5748734700525454
Ni 5.742707837600467 1.2295088606272633 9.963603594934806 -1.6483674039311675 -0.2901212238369713 -0.6620539218247953
Ni 4.020135850402133 8.287501996885752 5.835973759560076 -0.5205722855068196 0.009263684690113077 0.1381368882154589
Ni 3.536417110422228 2.238413802917357 2.633201559203725 -0.4025540224181068 1.4222414519992344 -0.005079728515752542
Ni 5.860616667807622 2.1381409884799667 1.7412598287369345 1.8269243478348858 -0.666058157888182 1.4750477971669886
Ni 0.66766527255411 3.9509706200404144 11.816592661031518 1.1086072326419876 -2.1529741672476668 -1.5058912649104064
Ni 3.944188253701065 7.591340537625366 12.40544366913371 0.6617739286905313 -0.635810414747234 0.4122594226313287
Ni 8.049243429904259 0.9512827777174598 9.673153414670796 1.1520514198685514 -0.7557827162385242 2.1058957257026245
Ni 8.726734748856874 7.071557868937187 11.395785958711446 -0.5591146645563919 -2.1111261208636285 -0.47430297012663475
Ni 5.8143139745293695 5.9177264283298925 7.482042890395493 0.9699432682784651 -0.388296484057828 -0.3326498412278013
Ni 8.97144029043566 4.984042400633081 7.8453075495035325 -0.45560693637902827 -0.2546055474288647 -0.8383207841427562
Ni 5.0573534455841 0.3874631732973614 3.786128373751197 1.9665997841820582 1.261189606858815 0.7245528116899651
P 2.2416372902160036 6.363611116518454 4.274634830848949 -0.48191163571182816 0.2213753246208252 0.14495031159286648
P 0.8687521864348189 4.366856380189545 1.8409624772128295 -0.21373760556990934 0.3120002832982498 -1.3297025641285487
P 0.9945483124426515 9.019662169793454 5.902487531872098 -1.0477397077326538 -1.1978463667154788 -0.9066699621411158
P 7.634699236723351 5.193652922980645 5.85063131033164 -0.14792764905363553 0.1205050340663086 0.8942175953103761
P 4.898116899605854 5.382860447686485 12.348024602893766 0.3718205978899919 0.7741627614076086 -1.1086632826909035
P 8.889464958814868 1.8303817993946987 12.876170637327595 -1.0509533295739448 -0.0968388007976203 0.3755340421858371
P 1.9793423150538485 6.281505354775751 10.64013159427274 -0.48324552403190324 -0.285019898054664 -0.8629714928119009
P 8.819750058653668 7.063676162998878 8.42526881315379 2.0504758541714234 1.640204408504401 -0.1360532662135528
Ni 1.5449075282815792 7.943362120224714 11.865871956020515 -0.41818735807998947 -0.8108806856539326 2.4540814577824963
Ni 0.3289047067781553 9.041285620718773 0.6378573314789052 0.5825333005906483 0.7399038402247387 1.0690181574954556
Ni 6.212135162793886 7.610215639553282 4.801416938865085 -0.10590862430937244 0.21593589877280872 -1.230235838789778
Ni 7.5195667048254355 2.215635113769404 4.005864931777661 -0.5183351686461848 0.48258243652660754 -1.162575716438643
Ni 6.3604807935926 0.9852039258514871 12.233077468097708 0.16814140499734914 0.13046728748534306 0.9985830435023447
Ni 1.257271843719656 2.27460816174754 0.48904122059758504 1.1945216732176203 0.3304955138889598 0.13870715889663207
Ni 8.544738146605233 9.078197345219463 12.171117570327821 -0.4444028401330927 2.4118433750488917 -0.0751533454043867
Ni 4.06983904328734 4.138007414860171 8.679053222861281 1.6297078798484514 0.6299493279807667 2.8197954285541176
Ni 7.817916292258585 7.608613212341238 6.515555687038172 0.2811758417182254 -0.39552256949262204 1.1186170514695057
Ni 5.641577910933378 3.457730481161037 5.894633775245627 0.7330994157083955 1.3860284924137871 0.8930960801114233
Ni 4.721216388546004 3.051878523961741 11.088659355717445 1.0210020346274933 -0.37221371956335253 0.7297474685170271
Ni 6.95949976134145 9.336188126358568 0.8451955747740421 0.188709716067004 -1.1095392575379535 -0.16795885667289784
Ni 4.212315318600078 5.514156998264032 4.751292643014853 0.10824987084803936 0.17880299847625336 1.2372840038858113
Ni 6.537232241655981 7.254691076536907 12.819978545877337 -0.8514064136821208 0.9452565641650624 -0.7070790803852339
Ni 8.406128192763415 7.454277112371916 2.2118358706468944 -0.6753786639581595 0.5511349887850249 0.4358125273609204
Ni 6.829908118786019 8.501612358439232 8.646519292238146 -0.06912462271180352 -0.38518236390887856 0.4305003711193876
Ni 7.416471009892409 0.8064643500726986 5.7135949027463 0.12070943676763085 -1.557020479486054 -0.6427325957883641
Ni 8.954242147218025 0.565318619178342 7.6262529546859135 1.0452254259512324 -0.42672239213419416 -1.0409828486247943
Ni 6.878698300817852 3.3436600231129647 10.149115288971936 1.5007403168370863 -0.3680580455237661 0.1739569832378617
Ni 1.4241571847042298 3.7248327379593245 9.187345929452867 0.47840028012445995 1.8968804653090492 -0.8809478747846635
Ni 4.041852465700243 0.6557607289985868 11.554463518452934 -0.9674505837635984 -0.12456609150955968 -0.8078457554823507
Ni 6.972393710536037 5.094833472758831 11.617759393328678 -1.4681526127090523 0.646035434909352 1.5914868886940399
Ni 1.9080808863042806 1.5410039410615413 6.555848346627531 0.28731126519200195 0.829620685265597 -0.23270977579703794
Ni 4.78362720188021 6.515534259232429 10.201816511373629 0.41873680282555625 -0.8970794902392034 0.8204181928307225
P 1.5726425620621338 0.912123928544995 2.2637051351995443 -0.761296961188534 -0.5782328734430816 -0.07054824253220754
P 2.4269598605763645 6.948515681789124 0.4978368690329971 0.6614144884685835 0.537842385441177 -1.0950701173875013
P 4.971968297919073 8.866639687480518 0.3797994719913875 -1.341760009513715 -0.15412992120960553 -0.32593849064589675
P 8.583969663988476 7.284559574454428 -0.004498907562186717 -0.6021803853976144 -0.7470931588843264 0.24236246839545356
P 4.813001928621928 3.9038201309697436 1.2210989126952154 -0.9860538006870825 0.2596071144085142 -1.3569428879017404
P 2.9138834549803585 2.5147952312458535 12.310731836108351 0.08752935047123635 0.4422055753714577 0.23148387380973684
P 6.652579051611321 8.79358018633604 10.93779549192213 0.639153620187854 -2.566613243835341 -1.7074546970116269
P 6.082813696919557 3.456072155325317 8.237793214138179 -0.09571831403993193 -0.25239439871015884 -1.474858306864002
Ni 7.621749388905087 5.689781157416614 3.831602835755317 -0.82801528845169 0.2254924321129923 -0.75558242730226
Ni 6.6972327354911325 1.2697558696739533 7.842921609916296 -1.102387991205153 2.10250366930194 -1.154475713039328
Ni 0.6187139161573454 4.825607068260855 4.506588964723522 -0.5548252931524187 -1.076270725292811 -0.6469072959913439
Ni 2.9972189864439334 4.44741561334388 11.088018384832628 -0.3615660100415192 0.9564210654223141 -0.653603734174913
Ni 5.396322699555112 4.049100653903559 3.212316890349021 0.6999388697960268 0.5308710963296662 0.977163440175988
Ni 8.16414305087019 3.931126608635449 2.40979711982039 -0.5803200949894135 0.3700773899466401 0.06117605728868819
Ni 0.7965218482082014 5.683436663629393 13.315534751064357 0.25707149247085403 1.760670104692342 0.3981327534219595
Ni 4.624250909342774 1.7538006849586356 -0.060410574250336156 -1.7009269231954385 0.5041737895441382 0.0039307025129738755
Ni 3.0633563746898713 8.17038506384734 10.159232939857285 1.1221083524522157 1.0192629404491995 -0.49545440739326935
Ni 1.5014556648108008 1.0183145439422132 11.68059224127164 -1.3283545347410866 0.8989633375254775 -0.3021879251935183
Ni 1.8104353071796608 1.4886082978026098 9.26437330123461 -0.8355992714465352 0.13056910317052997 0.3596024585572452
Ni 0.809596536286008 2.7180146776198004 3.2030311973127166 -0.5963640358261535 -0.6197471906367843 -0.8779432836303847
Ni 9.392366243152908 7.0247893537949695 4.901243495956796 0.6627864291154456 1.8740853217914044 -0.7102888455717831
Ni 6.8904183789152444 3.0174356553400714 12.983713999417771 -1.4219750857117253 0.11869626299234395 0.2865856998798871
Ni 4.024318930740551 7.693141247776566 3.5528643487951506 -1.0822997050957104 -2.209162027293144 -0.29144508485471743
Ni 8.719439978467161 5.093100615424876 10.260054492450427 2.0058322473201198 -1.8168155415356582 -0.8483601706566292
Ni 7.194301930092314 6.465477041730609 9.43200861542017 -2.1906390287882913 -1.3620133604461124 1.54454780094034
Ni 3.013476169496358 4.721756741908205 13.438036584850218 0.5184372414416878 -0.7623667972139451 1.270063512309677
Ni 1.4982508103867125 5.868116399817479 6.5195775930116575 0.4041198242433298 -1.1334240345753512 -2.1612127531073746
Ni 9.505840449215102 0.495956811990029 4.028418163143455 -2.1544646357502635 -0.5072511429178812 -0.48392583792837945
Ni 1.4810154014199588 7.395350646580177 2.3283928858048193 0.7209445255134165 0.3459231612979397 1.1378195925398855
Ni 0.8352651842780081 8.518996830402454 9.759656534809343 -2.5778754470127216 -0.12453061028593393 -0.5614384275935621
Ni 8.273667087525952 1.6534999212094077 1.6333344927183056 1.2888662468384773 0.7299233319732591 0.2535593655525375
Ni 4.6602868887392095 6.311830358119958 0.9171920704249487 -1.1784592204381188 0.07742491504738278 -0.4861907227031563
P 4.569069651337324 2.3782069442936495 4.5454236018786665 -1.1422012665473489 -0.6063234610317105 -0.3645402621784947
P 3.758027203985565 5.793072497532506 7.215931902523725 -0.7422887955171474 0.9451040977475981 -0.6272635536184874
P 5.89909355377124 8.821846257041518 6.703971314575269 -0.031532009170010214 0.008646362821088336 -0.28382999151162086
P 3.7570489780712353 0.8222380100303259 8.895299843482912 0.5291523138663468 -0.9827571322136817 1.0932798582562977
P 9.10228033558652 2.692841664091061 10.025577467360613 0.4957562549044043 1.3268632949075407 0.6807517553446147
P 7.2847924853864106 9.186221435473252 3.1256488692706315 0.2122689914441828 1.2620923211787425 0.4144880548515313
P 5.670924688363257 6.425742436734282 2.8541660236636046 0.7221758268173563 -0.9175529276022069 1.1790307766708727
P 0.9485344287200584 3.3592650555558365 6.8189324240272455 -1.7472754285529908 1.3715230997087606 -0.04732218212473141
