# total energy = -340865.1315992929 ev
CRYSTAL
PRIMVEC
9.32513815479923 0.00000000000000 0.00000000000000

0.00000000000000 9.32513815479923 0.00000000000000

0.00000000000000 0.00000000000000 13.64828228895893

PRIMCOORD
 96 1
Ni 3.555815000659182 4.575779946024824 1.1897589232972805 1.2904562170334164 -0.7648687377001924 -2.5204745404957496
Ni 9.277300052989785 1.8121260942609045 8.294252396495837 -1.9121875279797647 0.03847450192611439 -1.5762968112171627
Ni 2.6546802889675356 4.522552058258115 6.390084392525095 2.162289531111321 0.2738875355869283 0.1971604179375185
Ni 8.64188514892119 6.536716592665045 10.813642650686184 0.36898852775783547 -0.18151525520109382 1.5966707468878245
Ni 7.936764838220472 6.616856828731461 4.045118979802641 -2.9602779341836176 0.8869496008940532 -0.4068009706199187
Ni 1.9045475370877882 3.0784145601867463 8.037623665919696 0.281054999869645 0.053993166387003785 1.282095760883863
Ni 2.727919922905821 3.2611126640979866 11.632089498606812 -0.3655679321120607 0.5479347366801725 -0.14559437293476862
Ni 6.942341445866921 2.0492550287422713 12.928143805063723 -0.2189345763898165 0.7102502790243639 -1.1369798702474097
Ni 6.59539036103017 7.367120132543361 11.474083427634863 -0.24917974842760313 0.03836085916638555 -0.21165064113389356
Ni 0.32186180101819223 8.375092950426875 2.346972182422418 0.1022651140195142 1.3682544562598178 0.6978953570034369
Ni 3.735902065927346 6.895547903327792 0.6636113238724146 0.17550864399569774 -0.28090021945933563 -0.282586606022823
Ni 5.463934065605177 3.2413526966527066 4.7004411884970905 0.4623481117576037 1.2813709669026965 0.849881235286846
Ni 7.2412121191190275 2.7840852291459903 6.675525002013779 -0.3605679077943081 -0.7833120320070445 1.277930830872896
Ni 1.164980166574488 7.492757716965378 9.334893037859436 -1.743635260697242 1.8895569350644426 0.7169971108298941
Ni 7.530403299115729 0.2544205378951383 6.415579319847131 -1.7444718976659248 0.8494019816575823 -0.1024530616606042
Ni 7.881382843573226 6.802026094215612 6.782295034698167 1.4357693112823404 1.1139384150469138 -0.0646853559935273
Ni 2.2447472220045848 5.959285396748761 8.093103574516059 1.122034818901803 0.2128238355063883 -0.4912717367704894
Ni 4.5225240828440825 8.424637408679246 12.479661550077155 0.9392190997217309 0.03318805671619446 0.3123476393353395
Ni 8.49824072299996 2.802502376717688 4.699785631294918 1.2536840425103892 -0.7050155129879858 -0.21232684126531173
Ni 6.6558265804793715 5.183639067270955 7.885144604246857 2.1994489137704374 -1.5372654083463138 1.8077763141515255
Ni 4.702909552528599 1.8275778479451084 2.6037780906207666 -1.392188855588228 1.107022918874003 0.8558333391052229
Ni 9.064817458271454 5.666643915687994 8.95366927329091 -0.5676016189814805 -1.926672351859501 -2.448998386832634
Ni 0.7131315367659555 6.292416627053231 3.1467202636034184 1.7610619408141222 -0.3565580153039666 -0.8825216470296866
Ni 7.185373192709241 3.3660204667215807 2.7805370141328103 -1.1846568646083986 0.7781315162473695 -0.34683795980272525
P 7.936671586840363 3.6603218223483034 9.20033409390231 -0.6692344987336345 0.32264156506217984 -0.0896746789490133
P 2.9779361981183703 7.992184133419763 2.374842222395852 -0.19133249840183178 0.04593147242479186 0.6680901007165462
P 3.708169105482673 7.047846057323218 6.279042514117874 0.3729734805475125 0.13392336435474353 0.6907412624571588
P 4.863712232390043 3.529219707051849 11.98881519310668 0.4757232475129291 -0.44491963186851113 0.6411853059059022
P 0.7938471338476484 2.833750914192503 6.248579153263584 -0.09378073069758688 0.10480279283970338 -0.35415171985531907
P 5.703627413039565 5.260720658069768 3.9068756738173738 0.04364319061124742 0.3058949417314603 1.306219393404944
P 9.340710991464492 -0.07716085447190486 7.361979183957906 1.0688937161024494 -0.8575526357891747 -0.0038916217449223296
P 0.2079673628934108 2.5813380785111293 12.2931308144434 -0.0743511612180655 -2.6789156874861995 0.9867999348244876
Ni 6.944430276781382 9.196600308642711 12.984811736242685 0.3361699385659178 -1.853645565879814 0.969083748491647
Ni 0.7931990367558848 4.571397131159661 4.684390760952581 0.8996868459550635 -1.540972939104888 -1.7370892320486084
Ni 7.70704938845784 -0.36498496923619655 8.826180648973711 0.2730095038573492 0.05525737781140807 0.47094099563293734
Ni 9.137693411827312 1.1572216517493477 0.4659361158017293 0.25902655931469587 -0.3848990283405048 0.23961035957161317
Ni 3.566445657991706 1.588285481445193 8.91296970844196 1.1277766064815868 0.48522167392166754 0.6040179528269856
Ni 4.680473270474166 8.7132784055333 4.970212768585914 -0.8168749555641545 0.35198659388320025 -0.4754345126279167
Ni 7.718136977552902 4.769472387651017 5.635703107767542 -0.8923982827134502 0.7047897701304249 -0.8968321501150877
Ni 3.280126620502387 0.6289824238686177 6.505767392120384 1.3700028064094922 0.26859723372226646 1.5427580560297687
Ni 6.008484824894724 5.5028665168010455 1.834752609130761 -0.11349312152484971 -0.03534932603357138 -0.44671349054414033
Ni 1.8094777550657843 8.095870342963918 7.0190108655656465 -1.843644488803044 -0.822834515581699 -2.4251971706479782
Ni 5.106249746917782 1.2203994617737786 11.477359348618121 -0.21947476516400266 0.4903849632901619 -0.807808474486512
Ni 7.518075466665206 -0.15412961110078338 2.4675415543354635 -0.4636385484342531 1.9556137174841999 -0.9017100470326793
Ni 7.257587061466318 7.429729109149122 0.9817887628624664 0.8487172968857318 1.1193770695639818 1.0317896121613006
Ni 3.0310428590909364 3.331032548904361 4.574289788970669 -0.20966112150769053 0.07356260387849911 -0.7265042789893811
Ni 1.6188346335691837 3.071607209438726 0.3473119676777756 0.24289520097047199 -0.6290638400520199 -0.32746649725464894
Ni 5.435828099640066 3.918199188904114 10.043689317964086 -0.5732824714163417 1.5825371356999196 -0.8454797637850406
Ni 5.016430017595963 3.3102188408638398 7.377182888971016 -1.2562767429382298 -0.5352756531552653 0.818441528720326
Ni 4.20259724796317 2.1156966370705472 13.637268330026357 -0.7886344726612223 0.01702250269992552 0.07876240291188372
Ni 0.41333301228175645 2.889244810495881 10.194447891673898 0.5478012964261018 1.6392978375297318 0.9392928903824597
Ni 1.1318666014974763 5.470023380726352 0.8212126838546883 0.2574576721656792 0.12866648683117843 -0.5689054253945686
Ni 5.308353463029884 8.66013444400869 8.984390940468103 0.773055644386359 1.5188120867371326 1.2469706350459555
Ni 4.629884396764566 0.042191586930706806 1.1038389666916564 -0.15851365209959797 -1.2047078697220026 -0.016378698468339534
Ni 4.740984091027455 6.395226273624353 8.375882789616407 -1.4250172149721585 -0.6589470007646974 0.3306112135312177
Ni 3.1054108347285507 5.9539607429444885 4.431174098374661 1.4531054885679426 -0.5815110299737212 0.06379703985130303
P 6.783804774542145 6.947367695254842 9.219182062850116 0.2235779886990988 -0.3652573428501774 -0.04207147524875335
P 3.72335975530257 -0.22089946428704638 10.491571034062744 0.0059089092852672425 1.2067326134615153 2.5245155433343425
P 2.4989971098741215 0.9579621027305957 0.9882212430624445 -0.06864459775159146 -0.22692067991908663 -0.9965472440192386
P 7.2434128516896195 0.7276116110694147 11.031878855557292 -0.8059593370929152 0.4200424090108572 -1.028737712708854
P 3.424507732326486 4.285674902503045 9.103868338720062 0.2835119460505698 0.20065917511939635 -0.23790468973441609
P 6.703422084887445 8.494333490173355 4.251521584537809 -0.24729975779607088 -0.30593325116856346 1.6334586051401352
P 6.366868528932944 1.89737650595734 1.4356768003540015 1.5303208587076806 -0.75953729818495 -1.5983627898782666
P 4.171096931762059 1.5269353984709153 4.654856183844185 -0.4107758961072668 -0.894393201656292 0.5133125186206127
Ni 1.7710302110464886 1.1610822588858958 4.974621693837508 -1.446336031054593 0.5741905850529078 -0.9874290837680543
Ni 1.8499861545855083 5.55066717424536 10.275832101150977 0.1851291978045973 -1.8149391504485517 1.1023612517322756
Ni 2.0827975501677884 8.029941617226246 4.473319992129114 -0.14128494692613733 0.7360631263224098 -0.31190643803286283
Ni 5.1973097195950615 7.577476595795187 2.779541089393237 0.022973063856405598 -0.1459376152068003 0.06664505082305941
Ni 2.7383081266500593 7.359231065786068 11.55701001493896 -1.893179105198062 2.431026889955878 -0.3470256503334991
Ni 5.263714027371294 5.291987845820604 6.206105947164946 -1.22414103874595 0.8262664240813835 -2.4908351203627617
Ni 7.535131144087299 4.361740053258659 11.503755084272019 -1.4878236087754184 -1.8360527924987153 -1.8173158782108443
Ni 4.613341601933077 6.292183498602956 10.865151915517469 0.44743185676740366 -1.1565739903292533 -0.46427721045951653
Ni 6.345001080297181 2.0700407613687593 9.255759916698208 0.971311095160269 -2.021547086952215 -0.37406439961884613
Ni 9.054718333805557 8.869987349807921 4.771998567538193 -0.09920884369169367 -0.03239872804567969 -0.07502427602569015
Ni 1.58239199422225 0.7354969477715046 12.213069842050077 0.4383707750063999 0.26196738711057466 0.7877412714229918
Ni 3.0308283809166836 8.606608151825629 8.70142149255233 0.3909038397736881 -0.857965040736245 -0.9377502284856882
Ni 6.752034029338716 1.4085061457313912 4.281193241174965 -0.584136126301394 -1.5882796946106519 -0.09838274824597251
Ni 5.7867237178554625 3.8358022694390406 0.2407993088024908 0.6416385913932369 1.2542242312845755 0.35009529039775833
Ni 1.3922804055922753 0.8305657972797074 9.808024430150445 0.7818896977382211 -0.8199227412515427 -0.15893094214267467
Ni 0.1481354123873215 3.826001549389494 2.4585875568173146 0.983033268693204 -0.32238831140079316 -0.2193806627882996
Ni 8.330052533833813 3.544969865152405 0.23391549192278083 0.6054783394225959 0.6568975744348364 1.234514925781106
Ni 0.38341330697350745 4.576013074475099 12.083220092788501 1.7453527576089813 2.2061245260184004 0.30694755136569074
Ni 1.542443102983185 7.990748062166071 0.5338371082287249 0.2947119285314473 0.5792870257392089 -1.6470234883087633
Ni 2.0744888521999996 2.2179840759130545 2.686391353287695 -0.17965480495358735 0.2579068438879558 -0.45487957129470047
Ni 0.5396336140163539 5.14300944095709 6.720523455485792 -1.668414809500346 0.6869920798273716 3.054223215483527
Ni 7.8308499206916915 5.785287646601771 13.214157910540083 0.024838142089602385 -0.33011576195203796 0.5230847675160282
Ni 8.975781040542559 8.81181713889539 10.970926023462281 0.6262261134929086 0.7360903800159194 0.631687393717796
Ni 5.889048457250014 7.946873287824381 6.856159452883188 -0.8787791492681188 -0.19271369502007457 -0.4904685241429037
P 0.08693546413502053 1.2864121137535496 3.3567540770800637 0.36801896475571455 -0.38090147714533756 -0.9031202971166445
P 2.5145887406284904 4.690460493283932 2.8402757132587895 -2.8196954126411438 -0.8722644880780526 1.1021848740554112
P 5.712113288629563 6.578819590784648 13.436433765197549 -0.6658596687241306 0.1041672161382335 -0.9021306795098657
P 5.290076192528352 1.1068099556619566 7.484021927676686 0.761952592494662 -0.4842132872618113 -0.1824087135496407
P 0.2785661177469847 6.706891036227531 5.273723630512286 1.5328063441336954 0.48499387418157763 1.0724904323147724
P 8.215567814472937 5.612595415776319 2.1204244820421176 0.3472727333472987 -0.9003633031967977 -1.5864845503834417
P -0.27677848879027867 7.5058502107328025 12.764746871807622 0.2340125537688615 0.9972895215019019 1.0778293280291824
P 2.3662817457017673 5.591781707735798 12.456677882421479 -0.24066734008121773 -2.035462411481727 1.6003854767352503
