# total energy = -381171.9576737124 ev
CRYSTAL
PRIMVEC
9.21992923688645 0.00000000000000 0.00000000000000

0.00000000000000 9.21992923688645 0.00000000000000

0.00000000000000 0.00000000000000 13.49429840290892

PRIMCOORD
 96 1
Ni 6.994459505036478 6.800462976525025 5.392591786552504 0.44710969754129454 -0.4574689292884315 1.9666895156823871
Ni 2.9385204879995834 4.187820883099716 8.519760322183854 -0.9993978260941561 0.45926150241248 -1.3041437418228379
Ni 0.3177574810096678 -0.13121249920906292 11.384559178971768 0.010172826767943769 0.5122246848730726 -1.389935026557045
Ni 7.390427800743972 3.526180329939748 7.755038195537996 0.8250330658949147 -1.1334865123821702 -0.5222388745759652
Ni 4.216670041300958 9.076319499232861 8.278050660501602 -1.2385705839077183 -1.1130536984491153 -1.0902441567537673
Ni 0.6058092724032977 6.417550100444556 8.486510491815961 1.0413854833798517 -0.6043653088640752 -0.9083224101428743
Ni 3.5625898300153964 0.028298728433068902 5.564630131883364 -0.20736564060529447 1.645718910564727 -0.08709894780203709
Ni 6.341808382763762 3.7535530018479717 5.59059345227157 0.044917943558612956 -0.03136437324389437 -0.01029341150620808
Ni -0.09924608297399523 2.0408866292087446 1.1123337381303167 1.2325560022825224 2.5529714846821903 0.016661005595448725
Ni 2.452362845687887 1.2422102696105972 3.3725219132999005 2.0199458039033664 -0.628726254206943 -2.1859673343442356
Ni 3.32407026380698 7.161828878263436 6.284253897255474 3.8624636353011357 -1.9886829892343432 -0.3074630575495285
Ni 4.0443680059974065 2.3761509116222213 4.789193525612814 0.370969048522974 -0.24000476679655441 0.8319174517195738
Ni 5.195328637155561 5.9631182342180225 -0.2406650437135072 0.011592332823289713 1.3414789879381865 0.36391702677219906
Ni 1.7560645789841447 0.7315340698030353 7.870117662781405 0.3608874959172559 -0.5936553786457389 -0.7071824387323177
Ni 7.588204500192629 3.7910043539136304 13.630995829866135 -0.29350788092101704 -1.471353636144853 -3.878984772884609
Ni 3.51890580586791 8.251108183641369 2.668997066155719 -0.14422808871486129 0.648346856651348 0.6012149361605517
Ni 6.997096404763405 1.4771709431805735 11.665956025530097 0.34844644194042573 1.2539768911604599 1.5154999916447642
Ni 2.57301483808848 4.690860215621215 1.8251034081982391 -0.4989937880050955 -0.1909468329276389 0.6376528672726115
Ni 4.435495838919456 1.161203972405064 1.0572713994618481 -1.8233890809881177 -0.7953730769366366 -0.8382652483144725
Ni 5.44037591317749 6.299654866849387 7.178251416003305 -0.723630814096328 -1.318016386039872 -1.1736096056553016
Ni 6.619595627073518 1.6358274833937327 1.6006801916139453 1.0525720961242906 0.782333213033543 0.2434667572032259
Ni 1.4164761498156717 7.895218919797347 6.584462165187403 -2.746804638018689 2.61521403556218 2.7188045532613367
Ni 7.850179566069936 6.448141825248558 3.303903512853456 1.0943599786943539 1.4267740497622654 -1.6608246558579138
Ni 4.127172189380389 4.109894042218636 3.445054173655718 -1.0039893021195807 0.35077740406644753 -0.2760701450605439
P 6.1008916349854125 3.040280845643275 3.426486158410757 -1.20257951052509 -0.451411667350758 -0.3320343191309894
Ni 3.237043352889267 6.562026389678644 8.61714858944115 0.0599972064892386 0.1227606628697047 -0.48239757420931106
P 5.46945556960661 0.39220656462852055 9.839840269115019 -0.8709866498068936 0.8176802250742693 0.4973135720891951
Ni 8.656324068251338 0.516587096363272 6.903656111153207 0.7054721409094302 -0.5686722263378401 -0.7313736912665404
P 2.3613621453215528 2.5788049535727815 1.4526210379257165 -0.06421690099754103 -0.07281724107204234 -0.2797010569449119
P 8.462428958960151 7.818149532323973 1.6851273663652448 0.6475325882801687 0.19216399316419164 -0.23825384554371867
P 3.652447259171455 7.995467209066157 0.5264284487007619 0.6402833629169231 -0.4728361557731212 -0.2508849040441679
Ni 8.448073529327894 5.266995146167468 6.715626720765067 0.21021905089368956 0.4309024916538128 0.19442964926991677
Ni 4.405623268586435 6.1471203595686745 2.089672962128544 0.24570181718133172 0.6913917515569641 -0.4833787071756579
Ni 2.0801819670974293 0.5086754751895788 1.018465639809177 -0.45789084731719853 -0.5687460169985689 -0.6503047517086672
Ni 2.871685221844005 8.8299722132057 12.142803383421336 -0.6261014149895862 -0.08288799504448306 0.4614402552313536
Ni 8.345197560261273 4.409965855199661 4.328822181050312 0.6645142104398297 -0.4347668597052254 3.5186621483318885
Ni 0.7193379475695411 3.9736972493299336 9.125465409388152 -0.7970077843265821 1.512140845364544 0.6985561305158873
Ni 2.867646892891578 3.3191560415886157 10.600621798057068 -0.2030086491881794 0.3995918544659892 0.780845572744423
Ni 5.762428037168985 3.935637381942677 11.771832159530783 0.32639974655303144 0.29496466797220167 0.38025124515584835
Ni 7.160344469675899 8.79356271313005 10.491250388928837 1.918136546474348 -2.0469588421571006 0.9496181835678678
Ni 4.9383876525751145 0.7294743376387152 3.286901041572245 0.8027503432373143 1.1511877863166755 0.6234737475587521
Ni 6.165514118153358 6.26625106366527 11.031467241621275 1.6410657280634318 0.2279627480303558 1.0002174937819743
Ni 5.018149259350105 4.898926355962357 9.592394889530244 -0.8019867255984123 1.7423216840921414 2.234391234173578
Ni 1.645895645987455 7.435900491139794 1.5696025765455761 -1.5598805746426683 -1.2562430614868172 -0.05426596043241622
Ni 6.412220981416011 8.922125404711425 7.132951138281936 0.1494173462252846 -1.9706364161452772 -0.4690761745100567
Ni 4.438713594180637 1.732987096408974 11.589604870534794 0.14795361719556455 -0.9648684248587188 0.01914443413893477
Ni 6.152615437321292 7.336131638184971 8.934021879248677 0.08966336609510364 0.6294129958613224 0.6768027979991956
Ni 3.198587028550059 2.3089560682311534 7.002110202216213 -0.0225845701687353 0.2226657612974746 -0.5049428064996788
Ni 3.798490936355116 3.871226957144378 13.311436774707373 -0.7607454595604382 -1.1016007194171673 0.29458028804958947
Ni 1.6852463034508303 5.6025083666670525 6.578038640572892 0.022385309673735643 -1.469624055048256 0.43783187178379435
Ni 3.855460878357505 4.6497762114841965 5.904875941997745 0.3405207593354458 0.19302659827480306 0.3127639009371517
Ni 6.402493956199549 8.468523332105253 2.0515384133154546 -0.025206581172614657 -0.8470211401302316 -0.468538813949348
Ni 0.8413129997981551 2.9125202878949166 3.1312308363994763 0.6232127805878815 1.3253075203846467 -0.5089807240144782
Ni 7.975561382106591 2.0687861347111283 3.627725863235056 -0.10551550263601182 -0.7590279626486992 1.5960919915662188
Ni 7.538582841694998 7.427952912242552 12.702007758133474 -0.24930881780629965 -0.17014223747746182 -0.5803995420770972
Ni 7.218383923455644 1.3480919355687517 8.692231082190213 0.08460523484590592 -1.9559495035570638 -0.7117749431990064
P 8.396082349047676 2.34769821037293 5.980956031077064 -2.1612024686947295 1.2079171206879198 -2.2829663148688035
Ni 2.292646013626488 0.8273724669760784 10.122437550444138 0.6006027564978494 -0.43801287744634887 0.7516923482192345
P 5.573797507402538 2.452556464199305 13.311275425947857 1.1008389015504783 -0.14025084923466816 0.21380111181799308
Ni 2.4963603474252882 5.962205461235625 13.165415225353588 0.8534237012224657 0.5272741230070274 0.8418650498505889
P 8.0697152982303 7.397573245808198 7.438044124659062 -0.7497519366634119 -0.8071636418136615 -0.5821653757282683
P 2.2121929121678625 7.762120023091328 10.114584014823867 -1.5323998527238964 0.4155159818954134 0.0714077623190254
P 1.7936265701991847 8.236420836560967 4.57641600149384 0.7189202959945361 1.1974738138674088 -1.9206266598860533
Ni 8.260696909921105 3.9263529133237407 10.932675701152656 1.262307522513342 0.3426378056784486 1.487381121921361
Ni 2.1930892190413127 2.1384334792468214 12.584903594456382 -1.2006840932745901 -0.5936186118705324 0.34470471550980636
Ni 7.941724242254064 4.085885346802837 2.231120504648313 -1.0138466545296345 -1.2216925772054574 1.2272366469521383
Ni 8.401918564177553 0.2434909519872946 0.18503291342572353 -1.3737188218084988 -2.5402625217559542 -0.33909045464682247
Ni 1.7699497922315308 5.390376237586139 11.013668168464516 -0.5672020695502167 0.7398341633290678 -0.9583925873263882
Ni 7.47780506896806 5.380769071448173 9.168929999222698 -0.25526940626510874 -0.3991568238110997 -0.8632244893629714
Ni 4.290208195923236 7.521083416234481 10.630727632596702 0.042327300013301296 0.14743168325382353 -0.12079608294416616
Ni 5.091281737091317 3.7973845448613 7.866676785235637 0.6041475364263144 -1.200487403882752 -3.2330658089484645
Ni 0.6966901136911355 2.822662858738858 7.196509641629998 1.4540511403106635 0.3691862455909384 0.5786810167240937
Ni 0.19818606430136818 0.3987886720238119 2.8348552930007065 0.4608653565644901 -1.4644425108473167 -0.29525597396037534
Ni 7.856227839569461 8.768410746503976 4.443848172704853 -0.5606920363458407 0.6150454142857408 -0.12970906916307984
Ni 5.107693210916249 7.273777257579346 4.2573566664931155 -1.29734163129934 -0.03506779023741058 -0.47989640505401227
Ni 0.22789267591031742 6.803182855613989 4.988491513365466 -0.2899343046371458 -0.814622669194868 -0.864825258191188
Ni 5.5556803466913065 4.150747548127778 1.3693475601507727 0.48464754658575254 -0.5673663630422229 0.9359460853974139
Ni 2.7783610993406587 6.233667834172401 4.0425682758341335 -0.9381546630129585 -0.48289405422975545 -0.15998303755627286
Ni 6.572776827026886 2.9646682069700927 9.883520605290858 -1.7677239262153297 1.0294403952028335 -0.5679530887836284
Ni 0.40113883195525857 4.787807770266809 0.8977675477630084 1.138020395696782 0.8494629168025049 -0.5596049739292491
Ni 1.7219508412581634 3.712911554308478 5.216504048354279 0.5289810783958051 0.7121904334698702 -0.7033242413284919
Ni 4.216577842009807 2.0283475256121677 9.216916042295304 0.28089096348795495 0.6411871056781151 -0.6752843044721403
Ni 6.054819649197107 5.207148586281158 3.6666035383348254 0.18048681393657948 0.2849322234368641 -0.026792180492179667
Ni 8.861956147306085 6.694821028723864 10.377574194896752 -0.5531900715418409 0.7642290472336645 3.304033141295961
Ni 0.6857930794699632 7.398301620208294 12.76522789008301 0.6106848233241998 -0.4735784332557844 1.0624597875516477
Ni 7.391746250607436 5.904248986817916 0.9832353686673532 -0.5831781332634989 1.5555750052887791 -0.03186933790477092
Ni 0.2919047997708429 1.7262196684384685 9.439679671638874 -0.8369886955948941 0.5277541479672395 0.6126380903958288
Ni 5.619537575742698 1.7262012285802382 6.649733731365054 -0.549221573812396 0.34006490274494977 -0.029676186908194055
P 9.125922717872262 1.7251685965193437 12.332654631802626 0.5575509196136978 1.8597125980095002 -0.27990880208034374
Ni 5.445087296955322 8.594642742471118 12.594539342374604 -0.5834555552946017 0.026894510397998846 0.3918777736511832
P 0.7342253671117417 5.25833763272836 3.2532731941106308 1.218175050970502 0.12279434432111756 -0.5571971358187049
Ni 9.031427664371293 8.658453871876933 8.867508388619218 0.9206120261435048 -0.22955734621098528 1.2640738703851455
P 3.9632787294298373 5.211057836225973 11.619116941639414 -0.4101660304374097 0.4423228176756124 -1.0533593679122761
P 5.665203884649937 9.123175178995952 5.0763251680807535 1.5433609797210905 0.46419236405519415 0.9688847451069638
P 8.885024409952141 5.533718475539067 12.416049812641889 -0.32144188832712384 -0.53152235676042 -0.1253253382730874
Ni 1.3573856241168027 1.3995483599602927 5.18371337045632 -1.63067692862994 -1.025222243356428 2.2983219713892677
