# total energy = -340896.7397097183 ev
CRYSTAL
PRIMVEC
9.01518854346034 0.00000000000000 0.00000000000000

0.00000000000000 9.01518854346034 0.00000000000000

0.00000000000000 0.00000000000000 13.19463970258488

PRIMCOORD
 96 1
Ni 6.265023997762117 2.0348722505635353 11.283369153627538 0.353897694862984 0.3027365986081367 0.279741423264544
Ni 4.40608314758556 0.3600179401431647 6.033354392447 0.807082394953765 0.19898641540266376 0.18880510399428777
Ni 2.8351595343838034 1.5926502170927441 4.663460463961065 -0.6049042120866808 0.16308970150605462 0.3289140283344529
Ni 3.383652607965366 4.354525285489063 4.874864827414542 0.4403667223905061 0.06510136048502338 -0.17026770731173257
Ni 5.365740930818639 4.397356445275819 2.9800886036003607 -1.2261413570054303 -0.9320498356668012 -1.0542908785876102
Ni 7.099100207467622 5.876685744978642 2.44789589205004 0.9041289408868171 1.128938745110488 -0.037268654543471294
Ni 4.762363390644407 4.381453653050216 11.43490996197009 1.6308540776377527 1.4950746339108767 -0.5094849173444065
Ni 5.690819607044829 7.713232867327307 12.477101794423913 -1.1943676641382592 0.7561033328027366 -0.9521054687660959
Ni 1.841766916395506 6.286029386586183 0.4362711076498614 1.0472100604814287 1.3277827213980165 0.08680738470354728
Ni 2.855056055042479 1.4961516411387485 0.44873280248741815 -0.39208860411040863 -0.5908199660794728 0.020798167692273856
Ni 0.5413593550508831 0.05731946896235984 4.698043627938748 0.7160884829726958 0.06840985603296607 0.5131464253563937
Ni 8.724421467091876 2.4396542068728033 1.358717799505165 -0.03525033856186187 -1.2201154625263244 0.5007169413437893
Ni 6.9846523915356356 0.6906860331379897 4.885301710951717 -1.2943637796179386 -0.38920819723882 -0.5294762728646687
Ni 0.6519892387223571 7.236572814411051 2.4028226549239946 0.8640536701324861 0.12408838054219275 0.08602216979809056
Ni 7.636775055045373 3.8247477428940937 3.7180647086763434 0.7092285226280689 -0.41276824394694717 0.5435700319535735
Ni 7.812057361872123 3.6467428491897174 12.626728678282625 -0.4734066835646105 0.7524148282075558 -1.3983957557298885
Ni 7.781108220312887 8.720544936107176 7.096710281039613 -0.4892125402486155 0.520519063671381 -0.08194619995650403
Ni 6.681417516648809 0.7942110468814606 0.3794014965854934 0.7910394825582892 -0.27071016630021116 -0.7639367128042263
Ni 1.7428973459090082 6.456010762671066 9.213447653849322 0.253820332523408 0.7326476728829576 -0.36915025014668035
Ni 0.09691327461747506 4.78170096962622 1.4380307219332729 0.04110705445295501 -0.21288554198225915 -0.37079601328021944
Ni 6.386278280888166 2.0838337384191172 6.985809040199209 0.15955700576244777 -0.33656280312896225 0.13652609208491326
Ni 3.4459475593706457 4.289327443439428 0.4451447575294875 -0.23833303552108634 0.056531359427825216 -0.0148756315602518
Ni 6.163368734079636 5.666667917491321 4.800975442289677 0.24796953016958584 0.24180711011261577 0.511781426688067
Ni 5.339119079660927 3.0648665331980607 9.144742903536784 -0.4271016298504838 -0.5087557524878659 -0.0949824643151719
P 0.26063089784615145 5.533098887097598 12.459394161493343 0.06592231372442195 -0.8596635114845904 -0.9644423930648938
P 4.0662375928641685 6.182228508079614 12.584241898690324 -1.233983221647352 -0.7141969223769378 -0.5448941500816359
P 2.372932797994298 8.377147397181199 1.4208117122105401 -0.046461633896649014 -0.2444679447742306 -0.43883871578175393
P 6.380661818554521 7.731299304753672 5.719968415493264 -0.14074038727657698 -0.14151171822496275 0.3364000522988529
P 4.614793772764087 0.9774177042560028 12.401522963004787 0.7584088410074616 -0.22024661033302068 1.2714639922016295
P 3.985073852270575 5.978377069414466 8.189674752685821 0.658906120224433 1.3710489882858194 -0.8538340492870069
P 4.803211208997132 0.967401830014141 3.8514227836629913 0.17601952219384523 0.13130778110876742 -0.5495511892376729
P 0.23641610197428742 5.415252345162749 3.550638236966027 -0.22744364230209216 0.4644990966623356 0.38411381343504813
Ni 1.427392799696192 0.9206941392426862 2.567782571105442 0.09017887227894146 0.9055368769779372 0.14008809840455874
Ni 1.8455803410618494 6.421924335570724 4.696512848959209 0.42747803935329604 0.7642303327852451 0.019876427208952867
Ni 6.058125425439227 5.707245280193948 9.28320718119723 -0.8582018393373992 -0.11387235924113938 -0.11163189994639484
Ni 8.607323185788955 2.239805511829065 10.209391570136852 0.3259554599267612 1.3234036184937144 -0.8059433962533151
Ni 2.2946178569150413 5.46979423459863 6.9249159505802576 0.12833378608210802 -0.4734678758198491 0.1463541339189286
Ni 0.5332105263135123 8.982093580125984 9.20683681624216 -0.4715637168186007 0.317925133423117 -0.47470740465390504
Ni 1.4516616866980752 1.066632008034099 11.367221223383078 -0.3406629413402649 0.21701884742434238 0.45108693702148767
Ni 4.174942733825797 6.796956170369511 1.5793717461918995 0.08311656611552137 0.12040733214617973 -0.5150981497661258
Ni 5.433399919284142 7.9284344281081225 7.997745900595707 -0.12903286903166164 -0.4995553169355203 0.13776639224991757
Ni 5.276292232143794 2.837575604857988 4.859255930328708 0.28071124337698106 -0.18114707322839768 0.23914884655416233
Ni 0.6194056435177114 7.451440813223415 6.783852594122395 0.7034155154907176 -0.7204403321834882 0.27218392263226027
Ni 5.1268745006544885 4.487273933744163 6.9541819564770675 -0.3888652120771045 0.410058558325268 0.16298042962169995
Ni 8.052654708196885 7.163062968715154 9.130835172490052 0.530224720994919 0.26066460913875106 0.265475143153517
Ni 4.696741834742957 0.32141039609206357 10.309077015167802 -1.2251905630563866 -0.5234606627982081 -0.04200591211814056
Ni 8.243091546617306 7.1807417530430495 4.48493719692734 -0.7458798553025154 -0.7151302328244846 0.48127708745162273
Ni 7.138649838699887 6.167777161176191 7.146229809053224 0.2668139165695985 -0.48852682703550065 -1.1940010248274597
Ni 2.347627164333716 5.259316632506147 2.49729641957761 0.2764892348758335 -0.8805863776801867 0.9912127191802027
Ni 2.2252189371005926 5.402117215756454 11.389731247140507 0.3866052123983342 -0.8529179652306408 0.20051622178362885
Ni 1.1457132401219587 3.3699675520705448 3.848823704865575 -0.013165590847680552 -0.29413240187889345 -0.5226289109255322
Ni 3.814867096477279 2.6100592968095024 2.4719889828793615 -0.1053164992513283 -0.0835045455825594 0.5186683836158873
Ni 1.1974874667385316 3.496423598866761 8.19558601167807 -1.2835939426959442 -0.10941123814599221 -0.7392561793384107
Ni 3.5432214415215806 2.695748661948023 7.223735186219862 0.21614775767329872 -0.2571249714166088 -0.5007400812722409
Ni 4.253978889971975 6.93471726333971 5.79474219059394 -0.6171138667789954 -0.45764787806845697 0.27447066178390794
Ni 0.9619837018238988 7.630572605469854 11.580077032158732 -1.9262272939022824 -1.4092923480377342 -0.3893282677564521
P 0.151324443822477 5.532666158057445 8.003788781337668 0.17805377901505465 0.8155667782756921 0.18923807776664828
P 8.490206874109363 1.5790102371396055 7.986517483522584 0.021190518034686086 1.2014037450494341 -0.436669476044577
P 1.6745892638832773 3.2382826960391533 10.311003560915314 -0.4314395951042053 0.43586266387256545 1.607349052537277
P 4.192134697983521 6.057178830663894 3.658305729750124 -0.9286945460413232 0.34172609249745667 0.6044100460590817
P 6.846179098686852 4.0634789452331965 10.448743017433506 0.20377355237866196 -0.2032223078608823 0.64563974213283
P 6.224140118656046 7.788581811443853 10.174808406159167 0.0721829499221531 -0.8266605741960085 0.034218811973553975
P 2.369479980861415 8.415777479203141 5.807805198493542 0.03807675226706346 -0.123025229385001 -0.89978403365456
P 6.922853275488864 3.807600854678053 1.441633191192542 0.026836917687186036 0.8838069415000134 0.4472660206135007
Ni 5.322107419269934 2.869191870354126 0.3006421067212471 -0.4572874094052447 -0.30958550320917005 0.010544094064433452
Ni 1.3289559582498467 1.1575051064661128 6.952809844812251 0.15318786901131037 0.46224166808672645 -0.341702695458689
Ni 6.89458164486557 0.8184465776864986 9.1734544753509 -0.9705593045959091 -0.7224344797953816 0.2500415822072662
Ni 2.5744853636336367 1.6564146441968746 9.23330540919815 1.1321683077913793 -0.8610346808005042 -0.20665550191214732
Ni 6.397177643587006 2.0043107621027687 2.512140828692506 0.016656120499442283 -0.8070795667402874 0.6839743760469704
Ni 4.009126374752382 6.730144609607641 10.297796310002328 0.3581122471649639 1.1455254458245756 0.39038576248668894
Ni 8.208509284158456 6.98760937331001 0.37145190351035945 -0.056226169482580586 1.0239243504806108 0.819193576395002
Ni 7.612596319926855 3.894038480448504 8.316989946930507 0.3996252788070859 -0.3865861862349407 -0.36749831636555413
Ni 2.914186675341644 8.324534758049332 12.457164705417723 2.3870898222532952 -0.05760248100481693 0.26476346179847304
Ni 0.01899950941919337 5.008523108172795 10.267052714737165 -0.10696740459118997 -1.5334702029699396 -0.35570183795125837
Ni 8.579340041192431 2.2969527906941973 5.602892672161186 0.4586665491409585 0.9909106145587514 0.7747304609856206
Ni 3.470333643820903 2.6135481746957314 11.517468352199343 -0.4445900164432343 -0.5149526253271971 -0.4967078201843962
Ni 1.283735773553916 3.2980984706518925 12.583991276454569 -0.46553679389823055 0.28460980710043887 -0.03864650872760441
Ni 2.8586350848120734 8.612615101342486 7.931152507391579 0.9673467111958824 -1.0331353275559174 0.5532558917827698
Ni 5.745487709117421 7.839643838181842 3.5004849412123584 -0.24730490000239344 -0.12918147879438396 0.689370093141245
Ni 3.252535708799175 8.209600121947174 3.4382323611922607 -0.5268365212489765 0.06501137187437836 1.2059556260861748
Ni 3.2496147877781456 4.353813085610478 9.3054530599364 0.581310741037457 -0.5499625657434787 0.20303333177852773
Ni 7.417291279804717 6.247327183057548 11.456786217987464 -0.9202268748899441 -1.0371002257409365 -0.35263759720363785
Ni 0.37534105575872956 9.186386763019621 0.41425060861910373 0.21537282718048711 -0.39473786880779754 -0.21939248986284152
Ni 4.742998766097586 0.20682825385386389 1.7144192674728091 -0.7805105580025073 0.8007088873272532 -0.6693018616364602
Ni 5.934806664184117 5.434364544436148 0.3037938165636907 0.22583824548818524 0.023866522204952445 -0.01495225043445812
Ni 7.798732913510762 8.666228426379707 11.370849836688523 0.18896991170692617 0.4912264853548508 -0.014461169730652515
Ni 0.08875092309759955 4.968919385810509 5.86022761715151 -0.4109054797065956 -0.8365714055518174 -0.4071807225568407
Ni 7.8722157136416495 8.695699077051756 2.560656966244265 0.12153913175777777 0.872229263964743 -0.2905577971537576
P 8.48543783947935 1.562782898133889 3.4848363772978455 -0.1598987053725827 0.800234518793996 -0.011295370408161191
P 1.8416497189471313 3.0732416431626772 1.623190970620337 0.20816216836466084 0.728579673461171 0.14296824816583117
P 4.7716760801960225 1.022755086400308 8.224297583492186 -0.40312377887864764 1.1765599465328769 -0.6997375524184981
P 8.394934363769133 1.54227334466833 12.197124302407612 0.11475244785324752 -0.020031207619262276 1.768349989835103
P 6.3687617699503285 7.741486467573928 1.3044454642005452 0.10501747995367076 -0.6064317044748007 0.7973176022575171
P 1.814243546404143 3.3053016061327636 6.012019047729818 -0.2883908714094259 -0.44928793613953594 -0.42002595395062503
P 7.006739602960083 4.022477868678752 6.0102637905607 0.06443055967024387 -0.3528155175423988 -0.3167804782957125
P 2.3544787074694633 8.425513882606571 10.160439998988439 1.1476190951288106 0.10476216940975507 -0.018350477482729687
