# total energy = -340889.0759465878 ev
CRYSTAL
PRIMVEC
9.12663689936329 0.00000000000000 0.00000000000000

0.00000000000000 9.12663689936329 0.00000000000000

0.00000000000000 0.00000000000000 13.35775563681227

PRIMCOORD
 96 1
Ni 6.426968480339038 2.38541079690436 11.471587351645278 0.945341924790017 -0.6065157795481748 -0.5328225636290823
Ni 4.720588585077118 0.38138389696152325 6.223632489289823 0.8572510453883558 0.45389355323234737 -2.2486423447759534
Ni 2.802552856694812 1.2651800209699235 4.697655172224507 0.19109801379352248 -0.554693909780877 0.35840123916029243
Ni 3.114802480193055 4.581297854833346 4.371231881836696 1.1058049873065021 0.5412465260267194 -0.9369853252952056
Ni 3.995522927613056 2.639186058675972 2.792171307379369 -2.319069488349264 0.3426509183045712 -0.35033440299175794
Ni 4.933996732455583 4.698867189586345 2.158974375549812 -0.5430465553499357 0.7238208186199471 0.4426627175135344
Ni 5.032327116916755 4.753316704501451 11.317986054960524 0.5677497145235706 -0.11422588592581617 0.048543713236658334
Ni 6.108959949044712 7.991000222042309 12.276164268569682 -1.2562142651314108 1.1191235587922792 0.9653551346871502
Ni 2.0657777242666064 6.609747634748161 13.253818725026449 -0.8370378036652746 1.8329723538011786 0.8100525333256823
Ni 3.0287382955384374 1.8643254710448274 0.5387517566374699 0.7197772446781927 -2.160777208231853 -0.6073344187947283
Ni 8.125599860991015 8.900442195348637 6.676352917165015 -0.3149825058550253 1.0673266287256458 0.2416009076390807
Ni 8.607285495954049 2.8246028111089747 1.4846610324490441 0.8927458958608561 -1.2961054448993938 -0.6165487383041446
Ni 7.1210035728162815 0.8059805936582197 4.537897046380899 -0.7624519007285837 -0.12066778489641798 1.0733620362864482
Ni 0.7538601964444774 7.461929089017049 2.314191086941231 -0.8784197090461711 0.7452908155682648 0.25534628224963124
Ni 8.039526549699636 4.029300610264884 3.6902268886628886 -0.8094071864321994 -0.39181992383005426 0.7725193122669146
Ni 7.6328527422738555 4.211440900100749 12.698683742739613 1.7288781569927256 -0.9541021874811505 -0.49122160025884437
Ni 8.296450501153734 7.216614219522726 8.781054834552881 -0.004494031215611615 0.2453513758204484 0.9124742275277189
Ni 6.955802320808515 1.0801465872808758 0.39345296141404357 0.9512909432846004 -0.6517152589029485 0.08293144668790878
Ni 1.9807265962924405 6.666597455131365 9.098835199928187 1.0794568363302763 0.20391470594221656 -1.1702031510769135
Ni 0.4802418010274711 4.997983582785754 1.1431495861682308 0.1392954272999343 0.07549941588989578 0.08964202593886497
Ni 6.77431914881943 2.061917156916776 6.8590873510540105 -0.7214965413621446 0.02471550046880905 0.23870378859694374
Ni 3.3659949037613526 4.66325505294559 -0.014789714870923433 0.6677170336478436 -1.8037795342873064 1.1601583652464018
Ni 5.971175113866476 5.584488640946911 4.662965738560272 -0.0684435374843789 1.1595724108359449 -1.2989783955718144
Ni 5.352808966773266 3.063136589490002 9.37960248991995 0.6347781168279777 -0.9893877501563217 -0.5355201650659035
P 0.342002459338546 5.534018339659526 12.319483849954956 -0.3787134683550833 0.7406638583192148 0.14684110085767615
P 4.180255182288996 6.465400747738889 12.510018820283431 1.043733157676422 0.5741851857362692 0.46732551036753706
P 2.23216543905328 8.540633667689713 0.9902866343974293 1.4067253586415063 -0.09621068029531818 0.8472183437427022
P 6.36181342050348 7.931165991438313 5.661217188858877 0.3710551804788771 -0.2671748994534431 -0.5093285942722003
P 5.068213052660334 1.1737402472631775 12.831846849062165 -0.8521795444027195 -0.7222197926814143 -0.5033034711240428
P 4.158935358815699 6.206195137094584 8.061378456096088 -1.2266668904915972 1.4842700870962051 0.06446989754861154
P 4.97723873742839 0.9427176909363124 3.8980331063975564 -0.8511899267959405 -0.5015571778568975 0.3009435112634559
P 0.5341857002660272 5.700862386284242 3.7348816970062724 -0.5198829727492787 0.17755935587713936 -1.4330249157679837
Ni 0.4757314171402694 9.211149417234301 4.571704846934037 1.1931368770549517 -0.9408365807204959 0.342120756832714
Ni 2.156332214207552 6.845853727750808 4.743605962987929 -1.8024826698527538 -1.0792033255585736 -1.9794005354911521
Ni 6.135253789552659 5.802250194060291 8.790511855564452 0.0493402409960247 0.23370633538235236 1.1483829698780288
Ni 8.795084300581626 2.4790865966175093 10.379777835247738 -0.019772040420604656 0.8004152673462344 -0.17841013391320887
Ni 2.3153547331282365 5.167063655416873 6.938565754622013 1.5149852567918747 0.1922015312703464 -0.15365992355172245
Ni 0.6792910107901238 0.06799435653185232 8.957403360700324 0.35641429063725066 -0.4433265763497784 0.5940137904264221
Ni 1.3877142461208138 1.0613822221006113 11.435039734736538 0.6071930081208575 0.004449036910289112 0.004511257606792231
Ni 4.549044320520576 7.298270238621863 1.3031395285855636 -0.6486219646896054 -0.5833609386982662 -0.9444721205905542
Ni 6.045502443646668 8.17553169070951 7.855722473982271 -0.6367270130242325 -0.02622653779669677 0.5238234454542656
Ni 4.950424678625075 2.8331453431171103 4.998071198498659 0.5618932557427936 0.43774856804136864 0.6263978631840825
Ni 0.7644735623336455 7.471220005239574 6.796171967879559 -0.5041200534880673 -0.3883538196583247 0.07261669502546203
Ni 5.005038473001876 4.763520284400057 6.733537685117342 0.13766894744010483 -1.096173891974641 0.31058823344207154
Ni 1.007589825032285 7.429812454255692 11.112717042245366 -1.6143321687233292 -0.120865759839837 0.7243301541561977
Ni 4.62241335344088 0.6852534425859735 10.61791916824805 0.43502448424198625 -0.6534178434163521 -1.183370284586491
Ni 8.096577156091577 7.294975522751204 4.26797676417938 0.18688448993280718 0.22236879888234606 1.2122013498855704
Ni 7.508648342595733 6.297205958873571 6.634236226504818 -0.16776808081833042 -0.8538957557628778 -0.09788832510805723
Ni 2.4746054179679424 6.028481266087722 2.1355307837022703 1.3457804435270175 -1.6627866646802913 1.3220406767079167
Ni 2.5858134868986444 5.554827071474217 11.258797990239195 -0.18160781491490013 -1.0067429536053178 -1.0945726089257923
Ni 1.1636279337321789 3.229770723469218 3.578876444198718 1.7461755106205927 0.9369148770685863 0.036638477158640124
Ni 1.7748570508784203 1.0780839673729283 2.488109189719265 -0.7711818244024138 0.32463185601933126 -0.21122538067101684
Ni 1.1307629147564335 3.515845152737404 8.384516157250001 0.4360444408660684 -0.3820916407986968 -0.5102508489761535
Ni 3.5994360188298375 2.666538589048177 7.153545508850693 1.2494561204719707 0.27132311729386177 0.8978112261989054
Ni 4.0758920909289165 6.947150269159248 5.898049762147686 2.034451196608393 0.5253005442204244 0.827149598017285
Ni 0.4654639507843367 0.3272994475168505 0.4540164102952289 -1.0556754176399623 0.6657506539500921 -0.269804109546174
P 0.35836925704174066 5.634137544925821 7.792407344117697 -0.5093633041648776 -0.8664445389621658 1.385704276305149
P 8.695120248140267 1.9290607055893876 8.055862316837842 0.35229795447603196 -0.7707501361816339 -0.062055374569847964
P 2.155574703356403 3.4201797462103944 10.527741608405327 -0.7788172294604845 -0.3157049858433466 -0.5853041784675662
P 4.170918632882668 6.324923554716209 3.594345180844647 -0.10461793052240691 1.0759819904077983 -0.8015884617187291
P 7.0074043250542415 4.268409366761844 10.254989330816922 0.27667872517882025 -0.08569769657913627 0.6604174146626368
P 6.42434913558868 7.9826037162223455 10.078399861458996 0.7081838834136385 -0.6049571768118033 0.22539061642780536
P 2.3969286124965263 8.442987780985606 6.019953336698403 1.3445519704365554 3.064380101411871 0.021414461120034086
P 6.923877345419135 4.087948378089972 1.5881570933168454 -0.3164017548000551 0.8397837418415279 -0.24616101620593733
Ni 5.464099175434814 3.2280001559376177 0.09996679043238854 -0.3748593847163157 0.387786377190629 1.3399430109096342
Ni 1.5933464989790527 1.2672700207881533 7.126536140020696 -0.1897111607483249 -0.2275102338739695 -1.5451725790085324
Ni 7.491152579925224 0.6063965629813824 9.434742891237851 -1.2137908058598774 0.6922998651935303 -1.101584007246619
Ni 2.6902952245366145 1.71892902080806 9.162658683460341 0.4651228462892635 0.06225052129978956 2.001004744024489
Ni 6.280230414498429 2.2748780990939603 2.70710922744109 2.0524226934851493 1.0645524084146183 -0.20197635126892316
Ni 4.337908705695557 7.133589204909464 10.440114030873579 0.2533919867367378 0.600673718945101 -1.023401645207921
Ni 8.48356480802425 7.324390673031356 0.08491787907745758 0.03102730161944979 -0.6654902011998538 -0.19842694335476793
Ni 7.787768274652167 4.026635632330722 8.154842517836386 0.178992231668924 0.23232385321252894 -0.3032479910269164
Ni 3.3560833762390923 8.804147050885131 12.461370195693508 0.14410621842501634 -0.6966637985891809 0.2781131436325016
Ni 0.4880140448929931 4.935831186444509 10.188440633547986 -1.0658531295039129 0.3822009126830514 0.2982070861688993
Ni 8.923824638729881 2.15377675591452 5.741297037789419 0.10845375932872936 1.0531945601996378 -0.6186243898862508
Ni 3.700340114857563 2.587246368870094 11.818554701381714 -0.24302786989359434 0.8937020891265383 -1.4901152330230725
Ni 1.2134411171727837 3.2945150846505395 12.66086752332112 0.05109090513854427 0.7802084533810563 -0.25659480994475165
Ni 3.4882918363564612 8.864738792340274 8.008762482506233 -1.2230611754182097 -1.6422936869332618 1.5606390500752478
Ni 5.832915693576677 7.953836557152211 3.390265368899425 -0.23341888604892058 -0.25496678742302537 0.6721809829564681
Ni 3.2260196757605173 8.421950883251894 2.983374347518737 0.1405771222258353 -0.43094877151071587 0.9498770936562093
Ni 3.6257116060642636 4.460844502863924 9.171354542966057 -1.1756155803417365 0.20676425957586972 -0.25598365872331397
Ni 7.272934694973802 6.2855694970035145 11.264261195004227 1.0691860505318878 -1.1735175601621273 -0.8345955127723691
Ni 8.062105849045928 9.023907337449133 2.501800970187861 -0.34215649516665586 -0.1567226216374462 -1.0697030993776222
Ni 4.97380712200632 0.5925925248806285 1.7533254894322725 -0.4678857537463813 -0.896992586952352 -1.2555740604442505
Ni 6.169086232025053 5.741311640408235 0.19035243759325882 -0.7230574580913611 1.1016925078000253 0.11778506403198426
Ni 8.343534820202851 8.957912627031577 11.480656490594514 -0.5414031062092417 0.3221291442021355 0.6864336362207404
Ni 0.31800305531226997 4.820205825321567 5.721781550403738 -0.6724378361622807 -0.7537777699933534 -0.37191675714822403
Ni 7.623999904615851 6.003401268268963 2.363267750795237 -0.34147540993923126 0.6202351860167963 -0.643840227030246
P 8.870260407580576 1.6996535639691892 3.342337748613607 -1.1489090175848278 -0.22845639983732272 0.7440127201867895
P 2.1954672326379865 3.4439820148826366 1.4577055107759356 -0.9237621417367123 1.6326510216371755 1.5636256435073974
P 5.121950689908095 1.2362577090748563 8.245181619149777 0.14866324166807945 -0.12776274406998642 0.4236856621903993
P 8.659316452127534 1.9193864706229087 12.624334509031195 -0.8990008756316323 -0.34897454652975385 -0.986436895058114
P 6.648070382506882 7.825178358734806 1.1996452930451145 0.4949291310174186 0.2010993479806085 0.23528987781938832
P 2.3124342093647714 3.1986215122045087 5.644012565901038 -2.145894120472433 -0.6137030413252335 0.6605763088380043
P 6.881840056498756 4.0581042758820605 5.75406702794517 1.1523473538424154 -1.1388436629290257 0.5283822684695417
P 2.4849641506914835 8.620208813607382 10.21639917260111 1.2513345684416062 1.1276375098005613 -0.5642571279892798
