# total energy = -340856.48600426165 ev
CRYSTAL
PRIMVEC
9.36207100042856 0.00000000000000 0.00000000000000

0.00000000000000 9.36207100042856 0.00000000000000

0.00000000000000 0.00000000000000 13.70233724176889

PRIMCOORD
 96 1
Ni 3.7228462079389186 9.097133632171987 13.498405114753448 0.40739900921523386 -1.045970788757689 0.3833676792976429
Ni 8.07833435531602 5.14613375698766 1.3911026217916107 -2.4559755894814157 0.7493948104343093 -0.13532898645301855
Ni 3.295683000084742 6.808425613426965 8.1560695022127 -0.8338388371120027 0.6336334617005733 -0.87510247174748
Ni 5.623964492422146 4.19672614946378 5.258066676379785 -0.5991094597817747 0.4720681672588451 0.9771675539410462
Ni 2.5896798732630946 1.933922980832342 6.438768925927936 -0.7595786929458466 -0.6444894305784706 -1.3926583390254788
Ni 3.7601353362375836 6.096393312961244 0.8884305674950408 -2.1336798377944284 -0.7665378978724992 -0.481151617617352
Ni 4.652172173434017 2.9654359499377656 7.11334919806175 -1.2945977500056156 -2.243321961004304 -1.4762996672962188
Ni 6.069205859137663 6.336792568912316 13.057888785208991 -0.6811135095594076 1.3339788229063994 -1.2814789532354705
Ni 0.7760613756000984 6.898020631709221 6.550552988393135 0.3342909763756501 -0.968007998928965 0.49849139444738017
Ni 2.366712793282928 2.7841019991426763 10.431575128608545 3.137052846486249 -0.2617228751999363 0.5301180202137257
Ni 8.7691428411061 7.008062412784416 0.17662763776578017 -0.40404449092070416 0.8200335557977942 -0.9010186773926095
Ni 7.492025304642611 6.369999834309095 6.219833153666927 -1.083820769725927 -2.1308696220391434 0.2330692160189857
Ni 2.4243831498784028 4.956879494231568 3.754851383435232 -0.40806595337527135 2.802234793962535 -1.108803922033826
Ni 0.6898984925009437 4.714111634348897 5.299913260780833 -0.7002425170793748 -0.6340759485546306 -0.3544412260712799
Ni 1.836538719581347 3.958545704310294 7.438669926513834 1.3580749446236546 0.06783855691052831 0.14710566737297245
Ni 2.992997886596382 8.410921923181968 2.1967041396264007 1.1897173098504414 -0.9430335883718147 -1.995719070145518
Ni 5.899630669362691 0.36363406730457065 8.835034032137692 -0.014055963872433857 0.20295619868368917 -1.0725048304924756
Ni 9.240616730415859 1.9451574658834085 6.272641786856552 2.6756832965918305 -1.012349758269134 0.7704901976520279
Ni 4.0495918435783125 9.274189116576796 7.514895907585319 -1.204726381664764 0.48597500714792424 0.13455816972526505
Ni 7.553506024084572 4.488869571145889 3.6806120338036092 0.7172395658580035 1.435909179294314 1.05220751369602
Ni 3.9851246235269424 1.017460500720715 10.918583502122665 -0.06216541778515101 -1.356300112111419 -0.9906684166409584
Ni 3.2354287119275216 5.708719320061567 5.780317629499102 0.835539107632561 -0.059794860670445406 0.19474898028254847
Ni 6.858728020243116 2.2684204111569715 4.267401358712952 -0.3130788610744092 -1.3059720532808283 0.6572019930491327
Ni 0.5656478964574109 1.3511247067373904 10.531903761150007 0.11812496386990623 -1.4012553366658704 0.8589479734748046
P 1.4989143575841704 1.081927720772085 2.140359452266952 -2.0226243791767944 -1.046024781924076 0.1797324522690582
P 2.882553536473522 8.30423176348034 11.589463883846328 -1.8115362954145897 1.8383426169741564 -0.07359551399896358
P 5.487371878342929 6.272915159326128 4.424498780424541 0.3294364764968262 0.37510543928885076 0.6199320529540807
P 0.49183171242937823 5.035633234439545 10.915076470372556 -0.22562844347022432 0.7274046793164634 0.18983637347227952
P 0.04384819515431261 5.0169371789003945 7.408524994500558 -1.3136848485440535 -0.1941977357647688 0.37328304136813134
P 0.2663518526261229 1.8863823849245787 12.521154708444675 -1.2760228152169057 1.6154526554810176 1.6119880939711853
P 8.495395888695112 7.882030453190384 5.264808303617513 0.7737945794349125 1.4404546325731515 -1.2169959430607362
P 3.184002856606265 1.562679422319849 8.459727334865065 -0.6726486666215061 0.8473137316699859 1.5341080936642548
Ni 0.33840890353657593 6.65110537442853 8.965699519145385 -3.0837464217536246 -0.22705154906999603 -2.277082345284201
Ni 7.785872623224131 5.097788022984569 12.366989487331415 1.6752973955527921 -0.4320260637352947 -1.0725413401573656
Ni 7.362781916200967 8.539154207969018 7.326776327819386 -0.5289078019557085 0.11207567235203278 -0.07454759349958774
Ni 2.364503344556218 3.5074436812264698 12.778415990250311 1.1904698717457498 -1.2833406890345578 -0.0816824047721561
Ni 8.078119027685874 4.985049965497117 9.497405227642261 -0.475235252132917 -0.14010866722984902 0.23784298325854522
Ni 0.5988982273802174 3.4350655112849737 9.462792715407012 -1.564248621803377 1.1886904112478238 -1.3653244270972162
Ni 4.5381047018821885 7.934092929331202 9.6826880999328 0.7112509523747363 1.2694988980554587 -1.1435860627100176
Ni 0.3422922905358946 9.093791372869294 6.703004950536108 0.5402317116089599 0.6406420318079225 0.6830968585380236
Ni 1.3810646093984829 5.537636836875576 12.86805688267986 -0.49892333977847625 2.3012612565232495 -1.3907315543164114
Ni 0.26873169104277383 4.050453154098894 2.6044850521462246 1.7116846759325746 0.5754167441505252 -0.801574320651342
Ni 4.5170400424114385 1.018546500942318 5.210231175239432 0.4812670601492937 -0.9868577846456166 2.09452553619247
Ni 4.144429621551065 6.727462424492279 11.451426702230961 0.3069750621695165 -1.8791851049118151 1.9882587572127308
Ni 4.9573756839879906 7.508474463171547 6.490057158807316 2.9574420073967196 -1.9524497179339215 0.034038834752263956
Ni 5.522629437261527 4.299549773893666 2.965788900009787 -1.081163534608738 2.227844948414628 0.996604065399103
Ni 6.284992230756024 8.382517400144522 3.558647655467968 -0.20770785443606163 1.5077434876277969 2.533755830985688
Ni 0.4792013426107167 7.251457531415773 11.471761120173392 -2.143783501887334 1.2892485698785603 1.578492276206585
Ni 6.1988705407687235 1.3468368782762332 13.61450509189243 0.03873238357319136 -1.1714493647791888 1.3935949919071355
Ni 3.3634737552970524 1.4989705300094258 1.3744400080467039 1.5914403517268205 -0.1288832308276748 -0.8580380600660255
Ni 7.510168998000083 2.5997534615255504 12.158165687823454 2.010594958816086 0.9519805131524574 0.6638441809559986
Ni 2.0214021710966463 9.32204802289434 3.8720336159674686 -0.7588659831495382 2.053108920918896 2.977845767864052
Ni 1.823253941008461 8.75375159658614 9.158628394720262 0.0864227476706189 2.449118714460582 -1.1126808884907289
Ni 2.155822784732657 1.1049958634102748 12.502930501277671 -0.31256464044215204 -1.0937110322564454 -0.434725979164961
Ni 3.2617548552305213 4.905135328500531 9.45365346181797 -0.2202900619764464 -1.0649385881094435 1.4457575328433037
Ni 6.860694055127052 0.8952461550926878 10.748784558853758 -0.7553757106080926 0.5555282327567143 -1.1185162642255833
P 3.924121369699651 4.619124063242129 11.535230343469392 -0.2962671888337091 -1.0427281134506752 -0.015790687175353448
P 6.839966430207834 6.645871976808908 8.512618354278398 -0.034660784606979016 0.6249775857977882 0.03389999518155452
P 1.895847438580102 4.61329149308645 0.9180081580132361 0.7180129536889183 -2.0116920485350067 2.253964785430131
P 2.8765898973255815 7.864242518526195 6.322697035001578 -1.7628146618391705 0.9985604177945255 -1.4873196725558062
P 7.577004821983053 2.8821509674258596 1.077853347526898 -0.3763953617448679 -0.31188895453136606 -0.2294164497577468
P 5.749687742214457 5.389865910170548 1.1075517087593925 0.7411186864684461 -0.26301716853132767 1.5012668787645178
P 4.205039668401569 1.745136821620045 12.892104297931665 0.09083321803348872 1.9495662257385393 0.39189808536615733
P 4.138634499678891 4.946777819756484 7.5723359572372475 0.8489031876442927 0.007337157091361558 -0.43387391557731086
Ni 1.6656247536711215 7.046868196564976 4.43921501963435 0.5282174607569031 0.9247898116702784 -0.7072482589732465
Ni 7.945617638579421 2.6356570033345843 8.4315278411798 -0.34924451236168885 -0.9251556796501292 0.8419470680414339
Ni 8.010730841521228 3.598180872155584 6.397415722662046 -2.497653685946492 3.55373122412088 -1.5951216572331497
Ni 8.334415079984206 0.14857606480035465 12.180856539005346 1.2866561265610357 -1.011678443233722 1.1835476907046196
Ni 5.545557148836577 3.700948324160215 12.80121637766145 -0.29516392846720135 0.9845296507330722 -2.9170648891312534
Ni 8.633626865177611 8.665841751061544 9.527837575231423 -0.5622591237226445 0.23271826043747018 0.22808024744482652
Ni 7.4149192889087905 7.385157265594341 11.278448399692602 -0.3015999139005322 -0.16698132325097692 -0.26216716182620653
Ni 5.04859970260265 3.3165978664214775 1.1194331129079829 -0.5727553952682781 -2.0098660510698614 0.6154074256108498
Ni 8.777035066854474 0.695014864234617 4.456972995671736 0.0701090981122599 -1.3742258433519041 -0.8284786012413538
Ni 0.019338293601235828 3.7871636348562743 0.1324826649647019 -0.20718257806021093 -1.7892903395321957 -1.238147637437687
Ni 5.176747728751816 7.788737416912153 1.0821814328928216 0.9095940777664463 1.7782644207353375 0.9564038390311335
Ni 5.397589618643156 8.739577421280044 11.840943150679013 0.7859988348105882 -0.37551630157402427 0.44468386170862123
Ni 7.277418553954612 7.417166185919004 2.043566873895313 2.0561752185490456 -1.2281450176990205 -2.426627989557234
Ni 1.6176535025030676 7.9097702691956435 -0.005968320183379087 0.3814465510155302 -0.07353072219929917 -0.3044911194053982
Ni 1.995787545180215 6.80552337145544 10.088633110353863 5.131604378686227 -2.018093066965344 2.4124534978290644
Ni 5.727097065190937 5.534069887871862 10.191907986599965 0.45104528515027476 -0.5670436895954815 0.15298063809651075
Ni 2.3922806088449797 3.0284801352160007 2.845358965090704 -0.448426359470189 -2.161618987406858 -2.0142235567076083
Ni 8.01566465287282 0.8319370232086652 1.9599270688972104 -0.5970242951179717 -0.17182116784178153 -0.11142235503875003
Ni 4.146292673655367 8.208598209483137 4.420962726254717 -1.1806814249004183 -1.1502395634707931 -0.5730580141103615
Ni 6.226039270450552 4.218717653951243 8.032775709812682 0.47177017640245206 1.958347571475595 0.3740834257822396
Ni 8.946011084093392 6.457394765935516 3.5248852192682505 -0.230226604363868 0.00210161972403509 0.2529441005660418
Ni 4.847839454740091 2.6367898139105668 9.433771231898845 -0.0927448332339048 0.5698132819208187 0.5283853537933352
Ni 4.634318704273697 2.239500974221351 3.4823392881727737 -0.4072575985413631 0.2983307562309572 -2.32938629689424
Ni 0.5189620576206163 8.302995970124723 2.1987731572899722 -0.5787370667730098 0.604138794675566 -0.2327012911566057
P 6.771651399026474 3.1418735376647655 10.212269554547937 0.3605105721938114 0.7970226967249177 0.07583545907307586
P 6.362407194828749 1.6419761626386264 6.447428841488132 0.36591168860472467 -0.17571716046207803 0.17281181388982497
P 5.4063150686994845 0.5641911582291225 2.2390029120507537 0.20616853497339976 -0.42768886981252147 -0.2457113302630284
P 6.885325663601515 8.514063858021636 13.477632551894025 0.6626884700850005 -1.0480677804960337 0.33716855503376125
P 0.017346981125934288 1.0863653423672563 8.606026544028403 0.10814188451526537 -1.032936324171234 -2.9731815296191635
P 8.898021108783585 2.919945647551822 4.117758017832746 0.7065628028704476 -1.3918443277646158 2.2712523688659854
P 3.293061620239493 3.387075535975168 4.7333216675791325 0.7872049393035475 -0.9952223545602278 2.3680438613654378
P 1.8001296259450157 6.473366458849782 2.012188020940597 -0.15468836481623682 1.843451656065948 1.0411607689635554
