# total energy = -340888.28016041516 ev
CRYSTAL
PRIMVEC
9.09002617763369 0.00000000000000 0.00000000000000

0.00000000000000 9.09002617763369 0.00000000000000

0.00000000000000 0.00000000000000 13.30417214489265

PRIMCOORD
 96 1
Ni 6.190389628495809 2.0428106700520723 11.553715954362147 0.40973048556188785 -0.5607126051711311 -0.28171448783051484
Ni 4.718832562747337 0.13696033322835557 5.902808470718567 -0.6562002912574958 -0.14514802942596938 1.1335790720959766
Ni 2.581112929508105 1.501990473348377 4.987468287991807 0.350910330099886 0.41693317395791424 0.45903807354776427
Ni 3.0651750028384996 4.547376489226007 5.304599302825732 1.381881560124949 0.2211063872301547 -2.0313987829353146
Ni 5.063044583531571 4.861082382201017 2.525717401056915 0.1725171654675416 -0.710036620351661 -1.2394722697863816
Ni 7.339959787433096 6.035795553510268 2.15203006143055 -0.5832958897882858 -0.17769408168279074 2.521911272942276
Ni 5.080124742695318 4.629941196881306 11.311925803390317 -0.3480656615622393 -0.7103459240619637 1.3447360614229034
Ni 5.427218301773809 7.810041400521956 12.135374002614029 0.1400713862340104 0.8457594998089885 0.3697467460800987
Ni 1.6821911520402901 6.57062542297133 0.5492893740814824 0.4384047135681288 -0.5891667467467661 -0.9176164338502907
Ni 2.6840211157203298 1.4781655147703152 0.46885809556707286 0.7446225858566466 -0.9160190074561837 1.0797447998843406
Ni 0.5305493761400352 0.08237018109537117 4.839126333002447 -0.010591916583233371 -0.9567661074665587 -0.546580022424491
Ni 8.640478920863819 2.5187280799387652 1.1437879932938277 0.4769432359629592 -1.1879195945200705 0.7079481132537485
Ni 6.851080000235332 0.6602304164155819 4.891997561187659 0.13648418310338428 0.7210190875050938 -0.8444739482283456
Ni 0.45167521910766395 7.195810152510963 2.490847151685948 1.8812586996113922 0.3655630470160543 -1.1692395016120636
Ni 7.851346479415019 4.055951494702086 3.752361891845933 -1.0955683971801584 -0.6604878628892561 0.037846895644444496
Ni 7.784852938019168 3.737200637205586 12.469148855355787 0.26544763234969126 0.04638758612560398 0.10446932075968461
Ni 8.108221528807409 9.193197961817297 6.821927377322054 -0.3712860655427606 -1.4494846039859035 -0.10060443848763964
Ni 6.805039017710386 0.7665782685285846 0.5528072142072779 0.10802181399763332 -0.5491665522047445 -1.549962287087692
Ni 1.796916372266815 6.556181371395389 9.587398763489873 0.5581235042877162 0.22663220214439037 -1.2609381529696413
Ni 0.11726679154221609 4.9379294633986275 1.2963549924446078 0.6147127135366703 -0.9604229874928556 -0.683555800452313
Ni 6.5190940646428155 2.0660993170864086 7.046421935510029 0.22179929953212124 0.7538759861341146 -0.42291253146980073
Ni 3.42145857836965 4.143361186303248 0.35896149723931414 0.1598789078782408 0.3290011887316205 0.4130250971527597
Ni 6.113542547298199 5.851995224457076 4.3541625290765 0.8109706742645775 -1.2479401980480764 1.771689852841613
Ni 5.096741310524657 2.9005455389669685 9.353232417462499 0.7910040013346635 0.025318681270446716 -0.3471189813782538
P 0.2205622128690634 5.571922428291997 12.28931632272355 0.055854902186090905 0.10274642453130692 0.9440270626333355
P 3.646136755086156 6.1815177629589195 12.885782932600586 1.8500514207706522 0.04632510831878473 -0.4994689278693011
P 2.291259265189651 8.402529305946638 1.6691551455172842 -0.6655791613692343 1.5620225606863356 0.16457039981663915
P 6.570152741610757 7.671782102554645 5.80834855482395 -0.11997641525634821 0.5728353565765941 -0.837414470278403
P 4.659092910791967 0.7912495085425939 12.809403078747849 0.21938014856766735 0.4386826498198639 -0.439256777155779
P 4.00070231567215 6.023314947585934 8.148459438628718 0.48564899126707334 1.7743041505360089 0.7874137128802439
P 4.725995503365236 1.4701572017190854 4.241942520061007 0.7876901064700822 0.6106778813456644 -1.2716642811378938
P 0.43989000018494073 5.291667831603621 3.5091618778159366 -1.2834342771896283 1.963033664097355 1.0398160820102027
Ni 1.2485878139509572 1.3358702451858113 2.7753167935069634 0.290816450131783 -1.6396935303062536 -1.3042656121126828
Ni 1.69698971463666 6.673242728346279 4.803617963794708 -0.14966957144540677 -0.5635477606270811 -0.6131667092057892
Ni 5.89317304298383 5.792328292711025 9.227760059301277 1.0205685466345005 -0.8768526216693673 -0.24740054503999329
Ni 8.435607911160513 2.2402551283786987 10.460551225782963 0.5297853194646553 0.14834365354513163 -0.6038336047303212
Ni 2.2007044245354526 5.354888963580128 7.22393923847808 -0.2790731935529258 -0.12313115883524599 0.14756563772852652
Ni 0.45258876673723103 0.07183756777816376 9.605997866025763 0.5040493481511319 0.9528446609249653 -0.4902972886723621
Ni 1.77032804573464 0.9999392382377517 11.618706914432948 -0.8865575076619571 0.45378402423767655 -1.1415363792698403
Ni 4.04652513756914 7.04370674469459 1.6147277048526505 -0.008930726830726555 0.5362680989755216 0.8438743669711338
Ni 5.884746588729017 7.807032601861392 7.853013590213651 -1.0256950692277884 -0.13228711430290122 -0.36907800214784825
Ni 5.225001579710638 3.5682170508010937 4.816056755598684 0.7262435691288267 -1.0020797438016935 -0.5535829361048853
Ni 0.6788513350142694 7.4080259033554645 7.182749602917312 0.745053245636162 1.4261703547399955 -0.6724236950948934
Ni 4.99004258340169 4.687562872740266 6.888448188796398 1.687100044614675 0.3834018749696881 0.19450935346791662
Ni 8.573794488918507 7.103646377225586 9.615590570637526 -1.634043788219644 -0.694444936560991 -0.8526174032710865
Ni 4.722350402873133 0.2813035857077993 10.346348682060917 -0.0751471747567996 -0.4716403356928071 -0.4377056306185752
Ni 8.134809855339585 7.311253484804511 4.162689308937561 -0.8093904742616511 -0.14474179512648622 2.109304237163541
Ni 7.661228582177259 6.107170438956641 6.797514294051126 -1.769114121694637 0.5904787806899701 0.7197762162369281
Ni 2.366006550343182 5.155162908686124 2.728752225474922 1.156183439759054 0.22455217968691008 -1.5339085760589388
Ni 2.385350126021975 5.068825840172415 11.569947105082097 -1.1706183842374613 0.6042092429021853 0.7340964895143421
Ni 1.326543878340679 3.359628220396366 3.817405574068491 -0.5212711113460571 -0.2586105548231998 1.237957118693436
Ni 3.895467082761725 2.7722670897286577 2.679859701742063 -1.260548116620074 0.1810923087310623 0.14693417479211468
Ni 1.1793581746794877 3.2457756426816657 8.52885249055689 -0.6225779752173599 -0.48140769949221607 -2.307254497992207
Ni 3.798067452405397 2.7957557173386203 7.131634567787149 -1.672219785068733 -0.651836100751529 -0.3347748579906041
Ni 4.3292067712435305 6.801775698317206 5.751952214492011 -0.5463524797947171 0.4072992504125759 1.6715538693499599
Ni 0.800708589769733 7.583490678415493 11.579126213503358 0.5246531404444125 -0.41408567720679007 -0.2961926268420318
P 0.2794619464068015 5.594911104462894 8.038886445232428 -0.8333667825715906 -1.053722664788966 2.1446412219019386
P 8.715180755886527 1.624905807149429 8.170464573968578 -0.7260018854316658 0.39381047189752183 0.9333312734823862
P 1.932585012777146 3.224323180932629 10.496366837875076 -1.039548687281429 -2.24819163039178 2.3420219833803793
P 3.8829682967850614 6.170218860436015 3.830364315369096 0.8173616653925859 0.12216673803944768 -1.0577076175786428
P 6.844253390585532 3.93831746610281 10.358242981297618 0.6041125694233209 -0.22641751503042296 0.1756649670679039
P 6.4558820226924745 7.756355705992374 10.115215677764755 -0.433800382026898 -0.40021149032785913 0.24221385863273123
P 2.481595323055368 8.328081991656548 5.782391985110231 -0.12977746050717004 1.6802393129390998 0.7932143787224211
P 7.136452281654516 4.0956930890947945 1.33426221955725 -1.7794723250005096 -0.5066091384585082 -0.29371125518107477
Ni 5.405765840024771 2.8357972825947684 0.4542140634155055 0.04054141175747211 0.3592309341504394 0.09668170639446576
Ni 1.358231709551333 0.6817374183216083 7.114791658306304 0.9407339937043605 1.363620299921916 0.5780361840512432
Ni 6.907574512849852 0.4866372777428958 8.951938668373497 0.2151080035548747 0.9888007673046004 1.264361062608261
Ni 2.956212859200487 1.6451492954185416 9.412901167213784 -0.3735859173205308 -1.0377861960643675 -1.2823325594850172
Ni 6.482997570742212 2.2392824955790602 2.572787374543722 -0.1043073412605236 0.8021705594744443 0.7794065263050513
Ni 4.073086194022822 6.56970733032868 10.570457823139504 -0.7391937015315915 1.4780403041364094 -0.42696356161072274
Ni 8.016666785275078 7.110472986875386 0.25424166881243543 0.3841323253778094 0.4515217105660611 -0.30123430303099735
Ni 7.708351277815821 4.028935936940163 8.305422374432817 0.3958401007330408 -0.49322860338654406 0.2199069676054148
Ni 2.968620744915502 8.249989576874352 12.624754650253477 0.9161372782016028 0.3787350656216381 0.12487925187460427
Ni 0.24442262254916844 4.6867356803592655 10.237441078579893 -0.9696439918704914 0.06486327633228829 0.3240525864770935
Ni 8.80426301230202 2.210012611328255 5.6132165991536604 0.1297769462865378 0.8589348608486821 1.1830990332029754
Ni 3.8037850788630854 2.534499275334773 11.585432873656528 -0.3759834710184299 0.15738673758400637 0.7257008092514792
Ni 1.3021553381403963 3.123787491549429 12.745223858013567 -1.2390264404982145 0.559026989938592 -0.8285601052115666
Ni 3.2491662224411537 8.130537543042108 7.947672577681278 0.08586276140209083 0.27177563145024813 0.036067692256834656
Ni 5.697601130047162 7.99290545688017 3.7513238108579077 -0.1616740521054506 0.6606102473997333 -0.8811846733858179
Ni 3.485788693538267 8.77385687478061 3.6729359702253555 -1.632402653071795 -0.9422807693661902 -0.2941825383905385
Ni 3.1591567833568455 4.466302545861743 9.443660906753008 2.0915839370656433 0.285799713643482 -1.37784030017604
Ni 7.256649697632279 5.929414977303072 11.509026658727912 -0.22930820631465668 0.6882094971742405 -0.9928160591115806
Ni 0.517167948622765 8.859430381096473 0.1820286829536635 0.6659578848648917 0.8965979226170945 1.5128754095377237
Ni 4.874735601500616 0.7162558836799955 1.8698611052318572 -0.9363646609920713 -1.5050096336364016 -0.06303085110923982
Ni 5.82189814782527 6.007970983419674 0.23578164367686558 -0.4405487564943251 -1.5870157402965637 0.5897735270928294
Ni 7.700670205706526 8.621626206597927 11.743406620370159 0.12476689466645609 0.2879190739793299 -1.066681281832163
Ni 0.06457100086198564 4.772863678271184 5.755225532913972 1.3055010271816807 -0.5174931323608636 -0.383637645129578
Ni 8.141918255800494 -0.08276832424139144 2.332540710014684 -0.2170576710820778 0.6365971723145875 0.6779788205851678
P 8.286422401743057 1.7964436909062431 3.601651985040631 1.2287335432126387 -0.8221847978128419 -0.6350036025752226
P 1.8050064955535283 3.2225869859351426 1.5971921353780456 0.42116083888601663 -0.43030625283071056 0.15920090797460967
P 4.812232581591133 1.0808950112618727 7.9655272070742695 0.01224359325404343 -0.9808833122297367 1.495528947839476
P 8.551687545285601 1.3681580181233453 12.488493340037197 0.13047628634640754 1.247800844256735 -0.05044761512759054
P 6.26755486060919 7.82053129071619 1.6631948153609943 -0.10976553616161741 0.8992466730938513 -1.2307783415568094
P 1.698653189424827 3.2311679706347576 6.1213426987502535 -0.12720404335303898 -1.3740697773900141 1.0771775533777965
P 7.051724147771985 4.0493066855755835 6.156638361345735 -0.6169590863686858 -0.1390280325711606 -1.3479054602898206
P 2.539998741164505 8.555723516902793 10.167420607032083 0.024307209286796846 0.07633425308636531 0.5544985059406192
