# total energy = -381166.1094309837 ev
CRYSTAL
PRIMVEC
9.28131535491453 0.00000000000000 0.00000000000000

0.00000000000000 9.28131535491453 0.00000000000000

0.00000000000000 0.00000000000000 13.58414319164607

PRIMCOORD
 96 1
Ni 4.030912342171236 5.791865567544456 8.681217898798172 -0.9880764875440662 0.9295952034787216 -0.495835701992088
Ni 5.603371335952862 4.3417899967657725 -0.011246169699125237 0.13416761915506573 -0.8048154532964591 1.139919412491708
Ni 4.8653489905164164 7.68161560476447 6.725468428772613 6.4449182170441075 -1.2781167216314568 -0.13209402445548862
Ni 9.220058578122481 3.8948853857378127 4.458954536198674 0.5347501196690984 0.656092819145354 0.23263624224662516
Ni 2.1071277218970894 0.2907641162971243 7.788563272360451 -0.4408107519064602 0.15311150724742015 -0.9365698350243418
Ni 1.4038453394744472 1.0570675574587534 10.245839749975241 0.8881505631806899 -1.0331990909143174 0.6197181371710617
Ni 8.687181143851971 5.499411323738698 6.370188961979831 0.7552762089157509 -1.4664682830280937 -0.6613766932521126
Ni 9.015229231675345 2.981845278465595 6.718784953654729 -0.5833334278944405 0.8022412648113797 0.46815880490210987
Ni 3.4990187273181625 3.2465298270169307 0.40137233463118815 0.34049170586972327 -0.73913867992394 0.4367273258657059
Ni 5.103108443501884 6.475258091367424 4.674452754535837 -0.013505490685602547 0.06317200467279442 -0.7869797106666189
Ni 2.017163933093243 2.702774691263072 2.8584706109930096 1.667159082716374 -0.2704389149166956 1.0135643474025253
Ni 4.628861077721408 3.6395192777063428 5.129874828576826 -0.29669039241405676 -0.5387127038612722 -0.9680540216755522
Ni 6.531270828954468 2.153729205811679 5.818142827305258 0.6537389742011966 -0.22812909840489098 -0.1581225873087664
Ni 7.583864792458465 0.20164956783946072 3.1934555538408325 -2.348331470538175 -0.7494295203269867 0.5366789612606951
Ni 0.5338529005042125 7.57516820006094 6.0977999936321385 0.21508229252326186 1.9801494978420349 -1.184200236686954
Ni 4.589266986827236 0.16672212225742877 8.259186284532353 -0.23267712278688962 0.3366664185863621 1.1578011778681352
Ni 7.816408146268469 3.9274442396657907 12.759192078120837 -0.9485282929377987 -0.8554335325636429 0.4996018539027396
Ni 7.326976548724547 2.9739561604955886 3.1648069180314 -1.1672921480777059 -0.26798556828019654 0.34690429426428643
Ni 0.27979917045034164 8.473590235800499 3.7072756634903854 0.436961296253383 -1.1177606170064813 1.125877589686661
Ni 8.76943215967573 5.582469813989975 11.629874122029715 1.1099339218732112 -0.998471714735461 0.5743173404387593
Ni 7.9247025327085066 5.671394095484833 3.445386647095009 -0.2569509077325898 0.21508949161211346 0.1257066328719061
Ni 1.370683200054645 0.15495991142991256 12.455599327872957 -0.7245278719893006 0.17600255291298073 -0.009525422991931981
Ni 3.9941490524310073 4.507730632278408 11.878382266216434 -0.880343151321129 0.13526316621208961 0.7423332756018376
Ni 2.712909887525715 7.94055501917059 0.044712736259417206 -0.48994736153211105 -0.3651429287595002 2.8557129683863334
P 1.690637980972318 6.965710633589818 2.696738123818728 0.08890746176568559 -0.3555719972416134 -0.8009914515646785
Ni 8.281188570484938 7.163152053090925 7.82640876345986 -0.16304239320788694 1.4355273704748632 0.3718712486222693
P 6.892054115695737 1.0128142463046483 12.629666683026223 -0.2398474152830837 0.027854303208106865 -0.8337766164154996
Ni 8.04303002094334 7.426592905397578 1.7809358971254823 -0.11129534254258254 0.49280437136493194 0.43777864994835575
P 6.445103098091482 9.543512414892735 6.764128819351747 -1.2395244631805558 -0.49182349550890136 -1.5222265117353202
P 1.4652226772810952 5.811374892218518 5.4918925302475206 0.6021125082741566 -0.9834227908221387 0.6402216564410523
P 3.292667245168578 1.970386104188736 4.856412940185214 -0.9913857544229572 0.5787131555136098 -0.505055163707827
Ni 8.693492438227976 9.241925356872287 10.586435247897027 -0.8083964857794982 -0.41207044654897423 1.380248138286584
Ni 1.7537230807865907 2.3867923132761777 8.508509328198798 0.29782887689387416 -0.08532077285569177 -0.6523768037463474
Ni 7.307123815385908 9.136303989226793 8.598558505103027 -0.6239712560204609 -1.1662657636957205 -0.030139242587541644
Ni 2.9367937741992303 7.622734940762448 6.895595865598507 -5.0157746386084 -0.5169912530237806 0.2726485209735046
Ni 7.042903332597513 4.254276475190258 7.847341841894627 -0.09081162076693393 -0.7249968412059191 -0.12363946593023223
Ni 2.293245936782423 4.683240303822898 10.117021591103352 1.7463883979623471 1.4047281257058195 1.0570525004931473
Ni 7.382645877647014 7.483617306347833 5.520120722475728 -0.35641223375472164 0.6408495198330382 -0.1836014483061612
Ni 5.1185432707773195 6.356030315552483 11.00969013951396 -0.04151663118654785 0.9715936593976944 -0.5922078475659349
Ni 5.0704196511602815 4.862583158569285 2.8153004293296098 -0.0643606256642569 -1.2832586708437126 -0.5885553384150122
Ni 4.055340763932478 0.38239111679535337 5.994709640657728 -1.1147413705641833 0.7952622623903852 -0.418900324986614
Ni 2.6870428618993536 5.12632101296422 3.8299811481328088 0.019209483048915305 -0.541485381510403 0.12238142515341503
Ni 7.257543029273234 3.4942759752209005 10.561861109486223 1.235432552499369 0.031961897618577206 -0.7403602110358669
Ni 5.275861564414501 4.244187685503908 9.869885225311887 -0.9503869434130922 -0.9642079084565846 -0.8009677974155948
Ni 2.460170391712494 0.9960243470014234 0.8886905766906751 0.05666659945410886 0.8225167272309641 0.0325931034446729
Ni 8.241724418004388 1.9183272069019541 8.974051748398017 1.9721232851034487 1.2194528892416612 0.5869571406899569
Ni 2.4253840221223966 0.3167453021011693 3.4984061605110797 1.1115069227872856 -0.04678610711560329 -0.6318450023415828
Ni 6.23182775475881 0.762732919181557 10.404067612507788 1.4035742146070342 1.7795893101943479 2.352973854406193
Ni 1.1898367722363274 1.1439499495966683 5.294433476247421 2.020933621737932 -0.0907015775516309 -0.29092392224392477
Ni 6.82868129510844 4.442585080476674 5.209695067934296 1.1358598977103536 -1.7698741397891133 -1.644999001679567
Ni 1.9215199793509918 3.592138163310012 5.893670458355519 1.03927435057412 -0.05341672505824349 0.25315235992210594
Ni 8.672637322841384 7.746352778694814 12.64249067631935 0.01330443041838999 -0.6929400698806905 -0.6257293763621482
Ni 7.478289831389264 7.022725753224815 10.47747631928446 -0.15789478756867645 1.4121341883619034 0.7791069927867614
Ni 7.944824424189652 4.373671314679856 1.423074368427693 -0.8438522554839468 0.2575270919510339 -0.8047781723006204
Ni 6.8296187079495825 6.098993570774424 12.770764950117073 0.13079098937334893 0.7393700792084557 0.6610835874917259
Ni 9.082834332020669 0.7206950579797348 6.9098733128611665 -2.0218635897513693 -1.2784705054264498 0.8042467252771826
P 4.941056679082699 2.6129779661338834 2.2878822646943444 0.8809337337172765 1.7022572119710877 -1.1182450128420678
Ni 2.722116952262475 5.046752297250263 1.437012119551879 0.8266055525883571 1.7027320947249773 -0.8721932685204851
P 6.198795553752632 5.816618835339757 6.444656666827533 -0.8161486189210913 1.7549231749062357 2.7411397264234276
Ni 8.565168973459382 0.2685427913044317 0.29320417407867094 -0.6407448759343739 1.2801360660543308 0.2169203741732651
P 3.8112885792015234 2.2398319674678517 9.619828029608469 0.4829369916525489 0.06614805658198285 0.3369710943109745
P 8.709047922601776 1.8298298659090027 4.500196060551289 -2.380877008574364 -0.20903120123317548 1.3662001448339502
P 1.2679297588241296 4.300116891253623 8.407633497045143 -1.9818240573309802 1.914935265928231 -1.7727794863613664
Ni 2.833056513551279 7.955377279638943 9.226390291392056 0.576879958959613 -0.7102741902837638 0.8100386493686114
Ni 4.528065994010506 6.596397818125682 13.50877801423826 0.4511838676106681 -0.9314386844453636 -0.16279145353934543
Ni 0.26815111980050904 6.188948078263013 0.7269441675435054 1.2558599671157855 -0.5638899744578483 -1.0925733191075764
Ni 4.538553880252985 0.5968618935333629 2.238938176808426 -0.40118850952914775 -0.8362057946822825 0.4206928981106626
Ni 1.1366826797490037 6.50855016920085 8.078829910159701 1.9535321523648226 -1.1173690379950176 0.8831669939231693
Ni 6.046238574843231 2.0409519441016264 8.541083960362716 -0.933540818390031 1.7417964077162906 -1.1907110412222783
Ni 0.7768952781350067 7.127047736734073 10.589287396076067 0.8157513834826726 0.9098558160682653 -0.4510913078968618
Ni 4.876486568827013 1.269544707679166 13.507365398055866 -1.5183040367524625 -0.7290725539371895 1.0503254661819588
Ni 0.8652329805055062 3.9302379155586986 12.80920815791915 1.0972992638283359 0.9494001540197907 1.5267557670642415
Ni 2.5141690838883712 2.487578115671821 11.945786890152167 0.2737818632469995 -0.6186824968176958 -0.7653029970241336
Ni 0.8862588720928615 8.592056943764215 1.4117047572356252 1.2303322551583264 -0.8639387418211766 0.38282929029566976
Ni 2.9879059773296115 7.987731944631226 11.544796017578117 0.12892436847825536 -1.8904287961464346 -1.7976572234396526
Ni 0.550019095422044 3.3338762849177868 10.570773028397753 -1.3277148442745585 -0.03777644741782526 -1.0091420499651136
Ni 9.27992306154194 1.3641955606887222 2.5457366933467065 1.5671729945390236 0.938815436525409 -1.9742812119867161
Ni 6.021615245461552 8.315121059071222 1.2319850810897297 -0.5271777066384792 0.04137779161583842 -0.4214901972009773
Ni 5.418673162302129 2.554134427392897 11.743939630297692 0.12091512502053368 1.350907737451254 -0.1987904973417738
Ni 4.041780762339327 0.6284684845157852 11.504804686390868 -0.7663728330495446 0.7221884252228465 -1.8145498854299331
Ni 0.7405867728424608 4.500249892179791 2.3264340638849497 -0.8531547638317952 0.6236624665307905 0.03715012668773602
Ni 3.880814911805425 2.5227450191875316 7.29113953424715 0.09919727372746787 0.07680682184740967 -0.10464518421591656
Ni 5.820526269063725 8.364144966268366 12.365971522681479 0.08033668937753906 0.09254737251111804 -0.5948694535584981
Ni 6.3251885049473895 6.425138988969739 8.646538264333552 -1.721226296874423 -0.46354984537518873 -0.24222002928031833
Ni 8.79665425732988 1.8821857652840672 12.059622221801725 0.3331761460449165 -0.22786787432370434 0.0432356707601836
Ni 3.985972213687978 7.27344192231161 2.3112331257540366 -0.4914257458498504 0.12658312193958846 0.007752647362225357
Ni 2.797945297927122 7.419650481583972 4.568225317003941 -0.2632411116166757 0.6259137244588123 0.005186686407262035
Ni 6.739766294928842 1.39151975281072 1.1682632830487012 0.39013739392130875 1.416468296960883 2.0335767644232394
P 6.118567864655299 6.7748496666072215 2.7915681062127797 0.5558712179184297 0.5117505734501316 -0.15659638047222707
Ni 5.549122048264996 9.013029559959001 4.410106045859923 0.33750639798915427 -0.6203768538009832 -0.3451592865487217
P 5.447714397747011 8.307482536613206 9.888576866111647 -1.3881686786852416 -3.4336977303743508 0.22788612915614948
Ni 3.7082474171979847 5.36048859694452 6.306302884658721 -0.7657197728465781 0.28130902486198006 0.5012869549146464
P 2.40900250069056 5.8742279591513205 12.589458169061917 -0.20056275875084814 0.19316775183835766 0.19995726395636532
P 0.8108713889030086 2.6216095893245965 0.9960382689743117 0.4921271427922493 0.2844239163418779 -0.6180816300089033
P 0.24186921938207795 8.882023795080606 8.709691117749214 1.2047940016779057 -0.7872437629612828 -0.05731246056822387
Ni 8.74411273164964 5.327911180386024 9.325228873846397 -0.02631395530418049 -1.1536845845966002 -0.5347321219469694
