# total energy = -381169.5288937538 ev
CRYSTAL
PRIMVEC
9.19821806766566 0.00000000000000 0.00000000000000
0.00000000000000 9.19821806766566 0.00000000000000
0.00000000000000 0.00000000000000 13.46252191215738
PRIMCOORD
 96 1
Ni 1.3812596090872857 2.1357250467773516 10.359046945670226 1.4663932068157843 -0.5893202416054948 -1.8693254385089162
Ni 8.952395655703874 6.971504213069713 2.0361929690899143 -0.6870234472859393 1.0058690356407967 -1.236806035808128
Ni 1.4079988289081289 1.6945785099326185 3.668200600855596 -0.0924869515868278 1.0767970301099263 -1.4706818068888092
Ni 8.275379213848518 3.262810296969089 3.6928233107071318 -0.19437745587574268 -1.3777762797073239 0.5199079124499433
Ni 8.746144012758307 1.3594690305679955 5.054718831192134 -0.6103161271308716 -0.4782642687672279 0.012348494263023892
Ni 8.815710135739057 8.843093230822182 0.16208179995289923 0.9024420401026974 -0.19160863488135388 0.0393461058977903
Ni 1.4943241051443221 4.060958072096095 8.702039477113669 0.22861272290952883 1.8509032272479864 1.3713276958685028
Ni 8.289424892784337 3.755328881526037 9.668016098820358 4.03308718329039 1.8686410108473817 -2.6412037747577224
Ni 0.6891396932223576 6.372516254785122 12.303950360251738 0.2808698804420324 1.3643767184719664 -0.42698927264233555
Ni 2.468148646476448 6.8426463766506584 10.073453313618833 -0.6579350145604153 -1.5089958719776595 -1.9055828781790534
Ni 8.634808781691405 4.573280420077287 13.397578931993404 -1.506807606077089 -0.37177071848866294 0.4349810325985605
Ni 6.15690082588234 8.726901340634054 1.3999402700897454 0.24342536244232915 0.5403774931582048 -0.6825466424615083
Ni 5.497765719882407 4.247497933797746 4.0104984876127165 -0.5794130097941118 0.3031538886512134 -1.267871646864681
Ni 5.682806272044742 2.1882560699616778 12.013039238355685 -0.4714691002222654 -0.5733426352303157 2.022173664792621
Ni 2.3743176243256325 6.92094160854437 0.5993016175195047 0.7611984879374568 0.41165778449158785 -0.9035471002414182
Ni 3.153047961185765 4.111106756809971 10.773584877390178 -1.8327586951284758 -0.8812381523315727 0.026188485469909734
Ni 3.9912907687169867 8.832487685430564 10.31441903141953 -0.535291079774233 -0.414487283520583 -0.7652924555011723
Ni 6.434309883528302 6.893043413251415 2.601430825769196 1.5881645091890262 -1.207155817041863 0.2317345563679622
Ni 5.644707252953605 8.653692723312385 12.497904905509488 -1.0529976136974832 1.202724777853703 0.8794836315343112
Ni 0.6230440579053184 2.1324872740298675 7.91445493557533 1.869465049410574 -0.958398500863659 -1.2188633352867784
Ni 6.211915367935475 6.232271024441676 7.049448073034577 -0.6616232620452799 -0.4891408064704157 -0.13715549813879604
Ni 1.193974691724992 5.370627950235454 1.2984397737433264 -1.4902533012628334 -3.563403714213637 0.5858009155983266
Ni 9.305653219246867 3.125931614425584 1.6724218423356294 0.9384886493136096 0.7205282639116043 1.328963371969679
Ni 2.673977171392516 2.9730296360692456 1.6857767350971988 -0.3058265503873701 0.48358208143571557 0.950562549759008
P 4.094982280598778 1.9826483022783932 10.364378232841934 -0.5324605523039733 0.42494113186405524 -0.8883714209422442
Ni 0.7406340772344066 4.090355576928366 11.394409405284225 -0.3357516200815766 1.215721447223687 -1.9677051014310953
P 3.306805373819138 8.638782411881499 4.357818601415651 -1.151308885275572 -0.6724038976005517 -0.12512967732251354
Ni 3.2534741056659735 1.543589760927066 12.350396762207481 -0.5380760987185379 -0.6334539986999155 -1.1360817839131725
P 0.17789537639458947 5.945222234297522 9.833605179309098 0.3642826376417339 -0.6085232968965069 0.3640651223142891
P 6.460929526514721 5.246672764027789 12.917639830417876 -0.7591318352164153 -0.22011214163768542 0.896974846340539
P 7.120588930942512 4.150925842673208 7.768467257714118 -1.1114436736495181 -0.5916144369563101 -0.16558135757965675
Ni 7.003624390439643 4.310340159396645 2.003263348533114 -0.4694042472734367 0.36492849875584893 -1.0853192086483243
Ni 8.479800411405595 6.702116001548201 6.107313232468454 0.2008828610944282 -0.7625483170971319 -0.6025305696481816
Ni 6.235922717000628 2.0483419754674066 4.872248261148116 1.931948512656776 1.5833542322845764 -1.2748287949088044
Ni 2.073710660801389 8.483516491490775 11.589804391485885 -1.4549376566806749 1.4421201932010324 1.4302679218481367
Ni 4.777287697822895 8.295054202220305 7.1239895121491745 0.7759476212221733 -0.402844557075332 0.4727801057242051
Ni 3.0827643771984716 3.0341701913321097 7.443468459610956 -1.326273740952658 -0.17584340162729717 -1.779075346672407
Ni 4.457152917415386 1.5755075775002774 0.787026209703758 1.2508334604354716 -1.4505382420613988 -0.7946166583865863
Ni 5.203772275123622 4.6420187034351 11.10574540805354 2.0360630211802033 1.4976526790506983 1.2040193282954104
Ni 1.7235712931714549 6.729572682375589 3.247874230527711 0.6606781245231912 0.5480640631691851 0.909185272363802
Ni 8.956341691239873 8.128216923544539 10.356543190721743 -0.7107117920418147 -0.8911312430755685 1.83963742452618
Ni 0.9050016343684133 8.811083432068644 4.280354888432089 0.4711474552167886 -1.0279414420598039 0.287147485920628
Ni 4.290094881506836 3.8124590137266763 13.362374592117135 -0.10442046979962018 1.0378815839916513 0.021878288130330062
Ni 6.478516519393102 7.543844933713789 10.707820377922312 -0.08658704116262507 -0.38870117569541446 -0.9404239186631094
Ni 5.908263794242432 0.7248775297445185 10.163006244562673 1.1946224604615427 -1.0062793837053379 -0.03976802392655732
Ni 0.26815105119612365 8.603856778011618 6.8054129098763925 0.5469194080417807 1.7981187364571032 0.2895213854694433
Ni 6.413954227022101 2.9446807280926928 10.039245140755497 -2.292392236168394 -0.053742740939094535 -1.1408532371598867
Ni 5.3087515375299805 9.180410282514636 4.167633485907669 1.3961280427416343 -0.9967274783508447 -1.6439157959177173
Ni 4.677643401875459 3.913519835251136 8.720469946585641 -0.03933222194071936 2.1430191129174836 0.9541317551675053
Ni 7.95997231750978 8.003056770774599 3.870205426535501 -0.5023531913956316 0.887510872714162 1.2851427752403028
Ni 3.0580027742546427 5.089429226760051 4.842010959009466 1.4679847196726201 0.4076476348909302 0.375541755495321
Ni 3.7878261858353044 7.972711849484966 2.248793222121601 1.2546600332704134 0.14876839978737605 -0.13878043533672874
Ni 0.6240779376121854 1.3293080736390155 12.243692833920006 -0.391845377751351 -1.1007250016804333 -0.08891491796485332
Ni 2.4681302500403826 0.4817704667858252 6.086675190668652 -0.7223720019885624 1.2547189115328068 -0.5902206419325771
Ni 7.212782670283521 4.1810040156398935 5.6070055968814785 -0.6583114240632275 -0.07349755496851859 0.4017585231000049
Ni 3.6469002873574445 1.1953820190839837 2.849221621350102 0.010614285180736559 -0.49498749505917977 1.2984752306831508
P 1.1066468097232427 1.4446445295501102 0.836155731859619 -0.49070506563374194 -0.6075663322998762 1.0846928879182351
Ni 1.3643716807793849 4.350747931213971 3.533305973941729 -0.4398717850319586 -1.9599807362036437 -1.9248620381236399
P 3.4306317849743464 8.533361635009573 0.07137817193317621 2.1878069586561355 2.8313520230434657 -1.5187493518199975
Ni 1.20041344434783 3.026692040071585 5.634697752090501 -0.10891630078744469 -0.11466348768386703 0.03127361330230098
P 4.62177342554529 6.420052645577732 9.241496568291108 -0.2747758517291526 0.3814120982331689 0.40032744708043316
P 6.8085485824037155 0.35469064591247695 8.278090848524537 0.4716246519635232 -1.8212812906164955 -1.3781591169680396
P 6.625264889885613 6.249802828011861 4.945188290503233 -0.7676455291143812 0.6736917631740398 -0.7716788186434904
Ni 8.407879544608493 5.5495700838421556 3.958143150392813 0.19323254363802206 0.3431453414424865 -1.217581640360877
Ni 2.654798886794491 8.277623579048479 7.962610366441537 -0.4568639487145809 -3.2357610963924404 1.0922575876393708
Ni 6.94367960352102 9.196102442478296 5.917599985545547 0.42291715945549097 -1.027783833436017 1.1436277145812304
Ni 7.9513811818673075 5.315521426001993 11.262529954241451 -1.883317124802318 1.4904898427536717 0.9950758016800347
Ni 7.961122094763859 7.38267375734612 8.315934157154366 -1.3049446404575784 1.0297345294044844 0.4984497425761673
Ni 0.9643411785404888 6.604587295748271 8.04640153360974 -0.06835406309436615 -0.64186484847143 -0.8538029389387554
Ni 1.640336618194224 3.1608020589872687 -0.38717691236010476 1.484315852732476 0.8577716937785163 1.4618510959710564
Ni 2.376056087533799 7.260125898497446 6.005469642589418 -0.4066289638184287 -0.640153265096962 -2.2655283218980147
Ni 6.212899577264966 1.6637184884331588 2.386110659665262 0.7754035757932453 0.52370826003264 0.6772439993016723
Ni 7.760573346998518 0.6278400087875294 11.611008123694692 -1.1619511954807664 -0.7272740672758701 0.554554041768903
Ni 2.926955761943823 1.0512459425127374 8.41431829723133 0.5769709760115225 3.1066613786785853 2.0573581831135535
Ni 9.121753246120582 4.327393655629134 6.930641129459773 0.5896169469103071 1.0102594513990086 0.823534369862201
Ni 7.698871700435664 2.017334782479425 7.072078448860247 -1.1696809600248566 0.9072248062033215 -0.054616401793299484
Ni 3.877996317209135 6.978136128271236 11.817388541692718 1.0629356987468017 -1.438814011645935 1.8077835132403768
Ni 7.873555059093261 2.1662539324276366 0.2787685542711836 -1.2728539305706206 -0.7055747279255655 -0.864986980580033
Ni 7.534720301425424 7.142756636401141 12.938829765299635 -0.9084648492580096 -0.26448192600231224 0.07754755666817613
Ni 5.255549044429273 1.836470221303904 8.015397100087169 0.1673855006679311 -0.29291395609076004 0.3912668795400616
Ni 3.253290141305321 2.636577216871859 4.805635685977643 1.1769353275944245 0.14596358334872925 -0.24530278197070016
Ni 3.1782602768131927 5.814221213076865 7.712705820356733 1.2118257117137063 -0.769000757590695 0.012654198428900787
Ni 4.580252669346017 4.087540922210383 6.165902202049067 1.8964035256726306 -0.10146910048078009 0.7802902144615852
Ni 6.597881794802486 5.502042891267579 9.320454071883166 -0.2977129201413002 0.3610764719996104 0.06759198811736102
Ni 1.722982607217367 8.858058731561265 1.8138186895767596 -1.2593805786745345 0.695962144536466 0.2861290719584427
Ni 8.41911976704436 0.6091915415481839 2.187942410726765 0.6342147881253399 0.3771111568649699 1.236564352110967
Ni 4.705789949055294 6.6855316144353765 3.9429035427563592 -1.0930536011781047 -0.3032783300442196 1.879626563324608
Ni 8.310948722980681 1.535578113020649 9.40100010772946 -0.10437984636967186 -2.6354894979817645 1.060107485269387
P 1.0946431351906658 -0.10672232472354085 9.194686836723074 0.7382300520667415 1.8228373222497058 -0.8625112653460307
Ni 5.1256150165004 6.2476688414282915 0.9155851040367525 0.20803001366217078 0.15306702716272994 -1.770105796183945
P 4.8827544657849815 3.3392750834743072 2.0826255737186097 -0.38439766322405416 0.7186819547314849 -0.09916102117289373
Ni 3.4481083992363355 5.362478329058548 2.210304198585882 0.3606494117645208 -1.2357696241238136 0.8812358383387274
P 7.923906104603854 2.8816361416970757 11.649483349903363 0.5070619097252106 -0.5995313778105417 0.9288331285017165
P 2.4702090473157563 5.200148177218768 12.710747991497236 0.6822347676480444 -0.4292688127051316 -0.49576525376546876
P 1.0728249620172776 5.539626810148888 5.219433161145971 -1.538357355858912 0.7879202202030172 1.6786673404662895
Ni 4.711262888784706 1.1437984123570182 6.0078924532192115 -1.964705909593455 -0.0926908400675178 0.908903736567641
