# total energy = -381168.07326526457 ev
CRYSTAL
PRIMVEC
9.29207514223520 0.00000000000000 0.00000000000000

0.00000000000000 9.29207514223520 0.00000000000000

0.00000000000000 0.00000000000000 13.59989122800807

PRIMCOORD
 96 1
Ni 0.19780504696713744 3.298389285347309 3.992602068432417 -0.9062896959835617 -0.9966739994050898 1.2335577040741594
Ni 4.665569451194065 7.679026548158505 2.532598719183279 0.06652060943005318 -1.2981044776072934 1.4606822724739361
Ni 4.459870786498279 3.918310070240442 12.010321963411267 0.8501694559512261 -1.56667780007016 2.2148166544757597
Ni 3.7182795713062524 7.0079993506608265 4.854915922271399 -0.27832037454730135 1.0870832425272827 -0.5860238302424101
Ni 7.617382922482404 2.298924404227766 5.477668931630325 -0.054646483700286526 -0.8942703029251825 0.6121416103753845
Ni 5.164999899315718 6.135956694276944 11.687623994528643 0.39584087206398927 0.8861687568639706 -0.3881548162736412
Ni 2.314702347610042 3.1178163915029224 11.789881421697824 -1.1843305916172313 -0.2249206187699223 -0.6790198602551725
Ni 1.8530720606657138 7.067106239856738 0.251541116802062 0.8839866616109873 -0.5406526011964624 3.1124368477097812
Ni 0.17523831357597408 6.826729551190014 8.067999312906702 0.15171976910621612 -0.42371754386959926 -3.9007062237221017
Ni 4.266753591378231 6.255053219795571 0.5987627300748515 -0.22369188856914377 -0.6477860990518715 1.0731324367741453
Ni 0.8878679893487561 7.651298996301785 12.092084789918522 -1.7581481096014366 -0.0765301711472553 -2.697705566499193
Ni 1.8867651246846378 1.003079498301937 10.055270308619438 -0.055844103552813495 0.680904221762079 1.0173220146727446
Ni 3.829877392284541 3.994895352547108 1.783230966407844 -0.47255744819043777 0.30703933974854863 -0.32677075673920497
Ni 6.526883582401638 5.069152145494648 13.255228643290394 -0.40044417516395553 0.3766301034634933 0.03600572867064767
Ni 4.145148205604471 0.22597583080226463 8.929756571452046 -1.894748763678027 0.33417836205718576 1.2627623506625738
Ni 5.0284063965362975 2.392597812494388 4.6222628063604745 0.5029674279408628 -1.2656687256760912 -0.6837023533325064
Ni 4.983534966269507 5.699591559309298 6.129974456379706 0.9686417758582221 -0.4343071464599875 0.7026015042298545
Ni 3.7739205165200738 2.8476028499501633 9.2640556959959 0.5515034278680373 -0.3783416868379613 0.6924579880379494
Ni 3.0044995366461174 3.34654081809581 4.190710966252676 -1.5103223040985667 0.19811609698256846 -0.595181071261646
Ni 3.0241429832363007 5.760482526908859 12.387882201621117 -1.5226533148600938 -0.5186282744065713 -0.450667847206198
Ni 5.145040522174888 4.89439609061216 8.435604021941188 -1.0333790681356074 -1.3311418676782365 -1.0433364364586353
Ni 6.093724213315551 3.954642083564764 10.445641530657998 0.8249006540821083 0.3817375998933877 -1.3806561723582804
Ni 4.673504883260297 5.121698829727139 3.6260575851575996 -0.17417809810973228 0.5377151158346933 0.19481814295758704
Ni 1.9098094707317779 9.216651246078928 1.6758062163205922 -0.0584368039806542 0.5641789664531767 -1.430328599882743
P 2.5988632937663323 6.179322808390655 2.5520330940855347 2.314334030546808 1.5746335645821268 -0.5145299359674816
Ni 1.1894692311082231 4.693705854351621 2.615109557729566 -0.2886040158614965 -1.266705908691354 -2.090622858703954
P 1.5074440382586842 1.7330834959452608 3.1458858917203427 -0.1630130826318483 0.2993347720154393 0.03866553489099792
Ni 4.238514975395466 1.8585079245518337 7.0792333269640455 1.7836783926620572 -0.9460924298027964 0.9703261055391804
P 3.195172916036166 8.649332897868401 12.991649643301205 0.5277425780030137 -0.1514019807554812 -0.19215319453091423
P 4.984138951145742 2.3817353767971676 0.17397830820339655 1.282560102114791 0.31651873999389357 0.20329764118350796
P 0.597015819971278 8.938911123760771 7.255487264339598 0.8593686059519909 0.4173656335096425 -0.41150814628760096
Ni 9.039209781515947 5.25688922917869 0.8670109977610903 0.7819861141067693 3.1924218101748565 0.20021308872091326
Ni 1.8270356664624527 5.522949213197952 4.56264113620851 0.3928349953581299 0.6777556488307681 2.2831020691157193
Ni 6.050646153527429 0.3894448021591629 6.2291580651326 -0.9252577524456322 0.6648201717160228 -0.44118381897516273
Ni 1.9045129879709433 8.197589378744297 9.051040451430149 -0.5775908689837085 0.16399035894345304 -2.0071975030987623
Ni 7.30833779942521 3.575590467314362 7.758914233926926 -1.4867344894762975 -0.3931517552676003 -0.6292155351385357
Ni 3.5592549994309457 5.004228417336838 10.222902129584853 0.4922140460791007 0.7941510316040775 -0.996387835623239
Ni 6.944618106956171 0.853493816230939 0.43809439012868234 -2.0518722202983177 0.2423683819327245 -0.31195066100723695
Ni 7.8165027980647315 1.8357423407552635 2.3531074228711053 1.622333184650935 0.5328367046964695 1.0685759277517144
Ni 1.9929363738518255 4.168740784077732 0.3500798555486365 -0.8812643775838177 1.3759178863423465 -0.803805781085022
Ni 5.899185330717596 0.5481264964662682 2.8542903563413438 1.2426794638697694 -0.2893545208742759 0.2612878445450468
Ni 1.5046285395279246 0.6722658310977123 12.542444719072297 -0.3852677245338333 0.4650891648378506 0.22049677867061382
Ni 3.6166707309733974 1.3994143740876945 2.782062128011091 -0.7456980783090125 1.792445854442042 1.627887538810261
Ni 2.6567993815098485 6.372412127285646 7.160152433059577 0.4532626045165678 0.5513067384761989 -0.6080373583990238
Ni 1.3858293604099046 5.226401931041324 10.668665269226723 -1.4651590772983671 1.081073803108409 0.5388430587915495
Ni 1.837359161808571 2.181128769211799 8.047136746074026 0.3932363445616066 -1.5771182786771936 -0.43983604669801674
Ni 8.630897421030689 5.869543611406959 4.378335615828988 0.7181430515088794 -1.7861641351983881 -1.0977661761624256
Ni 8.603002611823625 4.892881482384062 9.121868364055036 1.3254072791873046 -1.247861265181025 1.2139954656715157
Ni 1.9192688031011285 4.46445177948265 8.328478476669549 -0.35747564202222953 1.2691109185884208 1.1650599163130773
Ni 7.3009413077100795 6.424549960217301 6.117842723234889 0.17585317181931004 -0.4568716620240648 -0.22308896487782223
Ni 7.744424172142285 8.727535001228373 11.883203589528726 0.3942365036913469 -0.7404034055689764 0.14572447075472966
Ni 6.914623288794813 6.256131100497777 8.342554111908342 0.5834108180995953 0.49026283589000086 0.6795399944247006
Ni 8.093062826855473 3.4752546412591117 0.48762300839499995 -2.386732181803561 -3.6654225165503003 -0.0427553886896554
Ni 8.870716585196272 -0.038090073917918486 9.271521878273672 0.12565006860235778 -1.0428044752145653 1.14611422844851
Ni 3.1631710096707013 8.696555223115 6.549992972973912 -0.45148854333528055 0.3239736536100421 0.5445763617309008
Ni 0.49781269786084437 7.024000303843558 2.302053975094168 0.5216781169764886 0.48899451070053845 0.6311145519334614
P 4.914903700179112 6.712808711456974 9.547653542406037 -0.0006880272059601054 0.7983727829949089 0.6629211549210969
Ni 6.177287843961492 7.570216349685919 0.43475853519685836 1.3116541912672701 0.7614327154354499 -0.7136423354250484
P 7.893859322597975 4.323667550869657 2.649068375094034 0.6290751529059295 -1.0056834019925518 0.01254286966201711
Ni 0.6421622956586314 2.1826433774398972 0.7992884966075546 -0.1983922334620906 -0.9840231434102988 0.8339154559862091
P 6.016079634456718 6.904550679474208 4.484822795546822 -0.8676102771354928 0.17120461730370515 -0.8624295042655018
P 1.03340883116398 3.2540010429815065 9.790479622047773 -1.006959440491498 -1.2241916894782272 1.6139207922175238
P 9.30387595428236 7.0778757548037685 10.010022549314378 0.011799563738089356 0.24053055739303736 3.232168493945175
Ni 6.623186647898639 2.549773261440912 12.176879620504483 0.4285746148515845 -0.5491033030669769 0.5360446701108059
Ni 6.435356643464407 5.809934950160021 2.0046917779583726 -0.5393428812461033 -1.1272284472876006 0.17606271672695484
Ni 8.772034748494404 1.587504556622459 7.667102028286612 -1.235887894869233 -1.3712045400270774 0.32481466145409865
Ni 3.390185694460091 3.9740253520544155 6.7517610899366565 -0.41669329003296623 -0.017512297852150485 -1.3107954428114006
Ni 8.702911002428001 8.815893342584122 1.1046455950897045 -0.008306205872850211 -0.7276587043087984 -1.7591109877353384
Ni 6.254709413019869 0.9894944846241471 8.495009186745209 1.8735219930887668 1.7322758698203649 -1.3657070072476158
Ni 7.73500200807301 8.37163923592534 7.116700831855691 0.1095775885205274 1.035767622972442 0.9243162144679694
Ni 2.956004197121913 2.1193271782603755 0.6022630547345119 -0.044140699072956244 -0.9461446231969705 -1.0680221121307736
Ni 0.2710340317769374 3.371963935347816 6.76827124883043 -0.6611105840749195 -1.2270939507266867 -1.5290057394406829
Ni 7.606669159985488 7.513023627943923 3.045776792295556 -0.5070002032493398 0.1231021053695235 -1.261817470250801
Ni 6.571764304743448 8.39178445456655 9.667047414325275 0.30407794312737957 -1.1325827696209785 0.8084345381062852
Ni 2.002386414146157 8.30202300988293 3.7939347169035154 1.6824229508539799 -0.15856044617713336 0.39175898868513176
Ni 0.032129207793224715 0.1225717615757374 3.153746987186423 -0.17743645714602987 0.20562037577941364 1.1610759919646647
Ni 7.55137202154737 8.949727099082898 4.697143922108654 -0.32571249067801966 1.1283836439379664 0.8746784968361839
Ni 5.8363709035891 2.935598800380171 2.267605465376199 -0.16388571504478874 0.625175046520575 -0.060835643230133934
Ni 0.34788320901414294 7.791088972887745 5.257418877454773 -0.2399672286903996 0.0020411987997448716 1.2626109126863738
Ni 8.258870613494656 2.34741974375197 10.131674395463234 0.09369048497662573 0.23055801956135774 -0.09404838253667673
Ni 2.4819411138021517 1.6119520059974695 5.82144690190107 0.3490899890616956 0.4252092979237774 -1.4633824450139183
Ni 6.678939098012689 4.179110739798946 4.578430230080809 0.5093522484212841 1.282593269345572 -0.7375029440927298
Ni 3.070510437581152 7.750315347704336 10.842554373509937 1.4687691632471285 -0.28701507410782184 1.0825858688775614
Ni 0.4271204495312337 1.0309650154339807 5.428083631706392 -1.3405909289062783 -0.6115991076083531 -0.40798419229474253
Ni 4.33975213272756 9.348106231372837 4.496164702315023 -0.24405631115810872 -0.7824023757085815 1.1036118363099252
Ni 4.343208784634631 0.13631009449134104 1.204335621931134 0.7253822495697959 -0.5805952030276711 -3.707959618581563
Ni 5.2484891933615065 7.914097461989376 7.752169116670628 -0.5154925569910671 -0.6173974594576851 -1.3838633664416684
Ni 7.459064548308542 6.129173479513067 10.862206182967638 -0.43765729387914304 1.159380349429797 0.027139022308637132
P 8.196836720667758 6.737246868756965 13.022031940990859 -0.6251097405002782 0.4074697145521692 0.18785688114840549
Ni 8.635552750615211 4.65511586679768 12.168882860743125 0.9970262405381861 -0.6491912069295142 -1.049385727976509
P 0.8745264280364641 5.188192918563162 6.561131383299196 0.6429555104324475 4.067352789341479 -1.1129189726434638
Ni 3.815093700929299 1.1852599211246122 11.619882909225069 0.17896677774762726 0.2790559671617452 -0.036514549986266145
P 5.790133538294515 1.2825665307236664 10.509111978282835 -0.5313727185564332 -0.15120734824617185 0.7269621924624061
P 8.597436658887238 1.2354371262272565 12.737848693854522 0.5251524486783343 0.9642410756873654 0.13071128517534908
P 5.47940654965888 3.5300035472711078 6.290207927214986 1.177983823463597 0.2636090364790557 1.7695848906834686
Ni 5.320744368709314 8.553001956146343 11.725554244756236 -0.42436983274161755 0.3396686957477957 0.5019456715445678
